Info: SIMULATION PARAMETERS:
Info: TIMESTEP               2
Info: NUMBER OF STEPS        0
Info: STEPS PER CYCLE        10
Info: PERIODIC CELL BASIS 1  37.435 0 0
Info: PERIODIC CELL BASIS 2  0 34.696 0
Info: PERIODIC CELL BASIS 3  0 0 33.876
Info: PERIODIC CELL CENTER   0 0 0
Info: WRAPPING WATERS AROUND PERIODIC BOUNDARIES ON OUTPUT.
Info: WRAPPING ALL CLUSTERS AROUND PERIODIC BOUNDARIES ON OUTPUT.
Info: FIRST LDB TIMESTEP     50
Info: LAST LDB TIMESTEP     -1
Info: HOM BACKGROUND SCALING 1
Info: PME BACKGROUND SCALING 1
Info: MIN ATOMS PER PATCH    40
Info: EMPTY PATCH LOAD       40 ATOMS
Info: INITIAL TEMPERATURE    300
Info: CENTER OF MASS MOVING INITIALLY? NO
Info: DIELECTRIC             1
Info: EXCLUDE                SCALED ONE-FOUR
Info: 1-4 ELECTROSTATICS SCALED BY 0.833333
Info: MODIFIED 1-4 VDW PARAMETERS WILL BE USED
Info: DCD FILENAME           mobley_5326154_equil.dcd
Info: DCD FREQUENCY          100000
Info: DCD FIRST STEP         100000
Info: DCD FILE WILL CONTAIN UNIT CELL DATA
Info: XST FILENAME           mobley_5326154_equil.xst
Info: XST FREQUENCY          100000
Info: NO VELOCITY DCD OUTPUT
Info: NO FORCE DCD OUTPUT
Info: OUTPUT FILENAME        mobley_5326154_equil
Info: BINARY OUTPUT FILES WILL BE USED
Info: RESTART FILENAME       mobley_5326154_equil.restart
Info: RESTART FREQUENCY      100000
Info: BINARY RESTART FILES WILL BE USED
Info: CUTOFF                 9
Info: PAIRLIST DISTANCE      11
Info: PAIRLIST SHRINK RATE   0.01
Info: PAIRLIST GROW RATE     0.01
Info: PAIRLIST TRIGGER       0.3
Info: PAIRLISTS PER CYCLE    2
Info: PAIRLISTS ENABLED
Info: MARGIN                 8
Info: HYDROGEN GROUP CUTOFF  2.5
Info: PATCH DIMENSION        21.5
Info: ENERGY OUTPUT STEPS    100000
Info: ENERGY EVALUATION STEPS    100000
Info: OUTPUT ENERGY PRECISION 4
Info: CROSSTERM ENERGY INCLUDED IN DIHEDRAL
Info: TIMING OUTPUT STEPS    1000000
Info: PRESSURE OUTPUT STEPS  100000
Info: FIXED ATOMS ACTIVE
Info: LANGEVIN DYNAMICS ACTIVE
Info: LANGEVIN TEMPERATURE   30
Info: LANGEVIN USING BBK INTEGRATOR
Info: LANGEVIN DAMPING COEFFICIENT IS 1 INVERSE PS
Info: LANGEVIN DYNAMICS APPLIED TO HYDROGENS
Info: LANGEVIN PISTON PRESSURE CONTROL ACTIVE
Info:        TARGET PRESSURE IS 1.01325 BAR
Info:     OSCILLATION PERIOD IS 50 FS
Info:             DECAY TIME IS 25 FS
Info:     PISTON TEMPERATURE IS 300 K
Info:       PRESSURE CONTROL IS GROUP-BASED
Info:    INITIAL STRAIN RATE IS 0 0 0
Info:       CELL FLUCTUATION IS ISOTROPIC
Info: PARTICLE MESH EWALD (PME) ACTIVE
Info: PME TOLERANCE               1e-06
Info: PME EWALD COEFFICIENT       0.348832
Info: PME INTERPOLATION ORDER     4
Info: PME GRID DIMENSIONS         40 36 36
Info: PME MAXIMUM GRID SPACING    1
Info: FULL ELECTROSTATIC EVALUATION FREQUENCY      2
Info: USING VERLET I (r-RESPA) MTS SCHEME.
Info: C1 SPLITTING OF LONG RANGE ELECTROSTATICS
Info: PLACING ATOMS IN PATCHES BY HYDROGEN GROUPS
Info: RIGID BONDS TO HYDROGEN : ALL
Info:         ERROR TOLERANCE : 1e-08
Info:          MAX ITERATIONS : 100
Info: RIGID WATER USING SETTLE ALGORITHM
Info: RANDOM NUMBER SEED     1744721597
Info: USE HYDROGEN BONDS?    NO
Info: Using AMBER format force field!
Info: AMBER PARM FILE        mobley_5326154.prmtop
Info: COORDINATE PDB         mobley_5326154.pdb
Info: Exclusions will be read from PARM file!
Info: SCNB (VDW SCALING)     2
Info: USING ARITHMETIC MEAN TO COMBINE L-J SIGMA PARAMETERS
Info: BINARY COORDINATES     mobley_5326154_min.coor
Info: SUMMARY OF PARAMETERS:
Info: 7 BONDS
Info: 7 ANGLES
Info:   7 HARMONIC
Info:   0 COSINE-BASED
Info: 4 DIHEDRAL
Info: 0 IMPROPER
Info: 0 CROSSTERM
Info: 0 VDW
Info: 28 VDW_PAIRS
Info: 0 NBTHOLE_PAIRS
Info: STRUCTURE SUMMARY:
Info: 2984 ATOMS
Info: 2984 BONDS
Info: 33 ANGLES
Info: 47 DIHEDRALS
Info: 0 IMPROPERS
Info: 0 CROSSTERMS
Info: 3054 EXCLUSIONS
Info: 20 FIXED ATOMS
Info: 2975 RIGID BONDS
Info: 11 RIGID BONDS BETWEEN FIXED ATOMS
Info: 5928 DEGREES OF FREEDOM
Info: 997 HYDROGEN GROUPS
Info: 4 ATOMS IN LARGEST HYDROGEN GROUP
Info: 997 MIGRATION GROUPS
Info: 4 ATOMS IN LARGEST MIGRATION GROUP
Info: 9 HYDROGEN GROUPS WITH ALL ATOMS FIXED
Info: TOTAL MASS = 17921 amu
Info: TOTAL CHARGE = -0.00029996 e
Info: MASS DENSITY = 0.67635 g/cm^3
Info: ATOM DENSITY = 0.0678187 atoms/A^3
Info: ADDED 0 IMPLICIT EXCLUSIONS
Info: NONBONDED TABLE R-SQUARED SPACING: 0.0625
Info: NONBONDED TABLE SIZE: 705 POINTS
Info: REMOVING COM VELOCITY 0.015596 0.0645913 0.0806722
TCL: Running for 100000 steps
ETITLE: TS BOND ANGLE DIHED IMPRP ELECT VDW BOUNDARY MISC KINETIC TOTAL TEMP POTENTIAL TOTAL3 TEMPAVG PRESSURE GPRESSURE VOLUME PRESSAVG GPRESSAVG
ENERGY: 0 0.0000 0.0000 0.0000 0.0000 -13823.3172 2415.8778 0.0000 0.0000 1826.9013 -9580.5381 310.1682 -11407.4394 -9580.1762 310.1682 503.6895 538.2877 43999.6651 503.6895 538.2877
ENERGY: 100000 0.0000 0.0000 0.0000 0.0000 -14372.4234 2432.3517 0.0000 0.0000 179.8441 -11760.2276 30.5336 -11940.0717 -11759.5845 31.0105 -530.8284 -492.0244 28845.8635 4.2220 4.2120
TCL: Running 100000 steps at 60 kelvin.
TCL: Setting parameter langevinTemp to 60
TCL: Running for 100000 steps
ETITLE: TS BOND ANGLE DIHED IMPRP ELECT VDW BOUNDARY MISC KINETIC TOTAL TEMP POTENTIAL TOTAL3 TEMPAVG PRESSURE GPRESSURE VOLUME PRESSAVG GPRESSAVG
ENERGY: 100000 0.0000 0.0000 0.0000 0.0000 -14372.4234 2432.3517 0.0000 0.0000 179.7570 -11760.3147 30.5188 -11940.0717 -11759.8887 30.5188 -549.9633 -492.2056 28845.8635 -549.9633 -492.2056
ENERGY: 200000 0.0000 0.0000 0.0000 0.0000 -14505.6409 2607.8367 0.0000 0.0000 357.9618 -11539.8424 60.7742 -11897.8042 -11539.1448 59.9172 1248.4253 1322.4827 28406.1752 5.1156 5.1324
TCL: Running 100000 steps at 90 kelvin.
TCL: Setting parameter langevinTemp to 90
TCL: Running for 100000 steps
ETITLE: TS BOND ANGLE DIHED IMPRP ELECT VDW BOUNDARY MISC KINETIC TOTAL TEMP POTENTIAL TOTAL3 TEMPAVG PRESSURE GPRESSURE VOLUME PRESSAVG GPRESSAVG
ENERGY: 200000 0.0000 0.0000 0.0000 0.0000 -14505.6409 2607.8367 0.0000 0.0000 357.7835 -11540.0208 60.7439 -11897.8042 -11539.1894 60.7439 1266.5088 1322.2209 28406.1752 1266.5088 1322.2209
ENERGY: 300000 0.0000 0.0000 0.0000 0.0000 -14282.6462 2508.2111 0.0000 0.0000 541.5876 -11232.8475 91.9498 -11774.4351 -11231.2051 89.9210 700.9503 827.0630 28715.2246 4.3476 4.3540
TCL: Running 100000 steps at 120 kelvin.
TCL: Setting parameter langevinTemp to 120
TCL: Running for 100000 steps
ETITLE: TS BOND ANGLE DIHED IMPRP ELECT VDW BOUNDARY MISC KINETIC TOTAL TEMP POTENTIAL TOTAL3 TEMPAVG PRESSURE GPRESSURE VOLUME PRESSAVG GPRESSAVG
ENERGY: 300000 0.0000 0.0000 0.0000 0.0000 -14282.6462 2508.2111 0.0000 0.0000 541.3146 -11233.1205 91.9035 -11774.4351 -11231.9848 91.9035 779.7667 827.1504 28715.2246 779.7667 827.1504
ENERGY: 400000 0.0000 0.0000 0.0000 0.0000 -13959.8359 2330.9952 0.0000 0.0000 697.3881 -10931.4526 118.4014 -11628.8407 -10930.2542 119.9670 -257.7115 -228.4394 29145.7713 4.1079 4.0926
TCL: Running 100000 steps at 150 kelvin.
TCL: Setting parameter langevinTemp to 150
TCL: Running for 100000 steps
ETITLE: TS BOND ANGLE DIHED IMPRP ELECT VDW BOUNDARY MISC KINETIC TOTAL TEMP POTENTIAL TOTAL3 TEMPAVG PRESSURE GPRESSURE VOLUME PRESSAVG GPRESSAVG
ENERGY: 400000 0.0000 0.0000 0.0000 0.0000 -13959.8359 2330.9952 0.0000 0.0000 697.0437 -10931.7970 118.3429 -11628.8407 -10930.2642 118.3429 -282.1382 -229.0176 29145.7713 -282.1382 -229.0176
ENERGY: 500000 0.0000 0.0000 0.0000 0.0000 -13787.4565 2332.4661 0.0000 0.0000 896.2968 -10558.6937 152.1717 -11454.9904 -10555.4614 149.9552 165.9973 223.1039 29393.0680 2.9258 2.9064
TCL: Running 100000 steps at 180 kelvin.
TCL: Setting parameter langevinTemp to 180
TCL: Running for 100000 steps
ETITLE: TS BOND ANGLE DIHED IMPRP ELECT VDW BOUNDARY MISC KINETIC TOTAL TEMP POTENTIAL TOTAL3 TEMPAVG PRESSURE GPRESSURE VOLUME PRESSAVG GPRESSAVG
ENERGY: 500000 0.0000 0.0000 0.0000 0.0000 -13787.4565 2332.4661 0.0000 0.0000 895.8389 -10559.1515 152.0940 -11454.9904 -10557.5382 152.0940 166.7855 223.8470 29393.0680 166.7855 223.8470
ENERGY: 600000 0.0000 0.0000 0.0000 0.0000 -13142.7481 2006.0231 0.0000 0.0000 1033.4015 -10103.3235 175.4492 -11136.7250 -10101.7994 179.9533 -1239.5573 -1197.1731 29703.4813 3.7423 3.7974
TCL: Running 100000 steps at 210 kelvin.
TCL: Setting parameter langevinTemp to 210
TCL: Running for 100000 steps
ETITLE: TS BOND ANGLE DIHED IMPRP ELECT VDW BOUNDARY MISC KINETIC TOTAL TEMP POTENTIAL TOTAL3 TEMPAVG PRESSURE GPRESSURE VOLUME PRESSAVG GPRESSAVG
ENERGY: 600000 0.0000 0.0000 0.0000 0.0000 -13142.7481 2006.0231 0.0000 0.0000 1032.8324 -10103.8926 175.3525 -11136.7250 -10101.7390 175.3525 -1246.7855 -1198.0768 29703.4813 -1246.7855 -1198.0768
ENERGY: 700000 0.0000 0.0000 0.0000 0.0000 -12516.7300 1859.7014 0.0000 0.0000 1215.6161 -9441.4125 206.3852 -10657.0286 -9438.1493 210.1089 -573.6875 -446.7660 29385.3910 4.5174 4.4347
TCL: Running 100000 steps at 240 kelvin.
TCL: Setting parameter langevinTemp to 240
TCL: Running for 100000 steps
ETITLE: TS BOND ANGLE DIHED IMPRP ELECT VDW BOUNDARY MISC KINETIC TOTAL TEMP POTENTIAL TOTAL3 TEMPAVG PRESSURE GPRESSURE VOLUME PRESSAVG GPRESSAVG
ENERGY: 700000 0.0000 0.0000 0.0000 0.0000 -12516.7300 1859.7014 0.0000 0.0000 1214.9881 -9442.0405 206.2786 -10657.0286 -9439.6117 206.2786 -516.8026 -447.2731 29385.3910 -516.8026 -447.2731
ENERGY: 800000 0.0000 0.0000 0.0000 0.0000 -11982.1038 1760.3236 0.0000 0.0000 1477.1091 -8744.6711 250.7811 -10221.7802 -8741.5991 240.4002 439.9938 558.1694 29181.5138 3.2309 3.2560
TCL: Running 100000 steps at 270 kelvin.
TCL: Setting parameter langevinTemp to 270
TCL: Running for 100000 steps
ETITLE: TS BOND ANGLE DIHED IMPRP ELECT VDW BOUNDARY MISC KINETIC TOTAL TEMP POTENTIAL TOTAL3 TEMPAVG PRESSURE GPRESSURE VOLUME PRESSAVG GPRESSAVG
ENERGY: 800000 0.0000 0.0000 0.0000 0.0000 -11982.1038 1760.3236 0.0000 0.0000 1476.3616 -8745.4187 250.6542 -10221.7802 -8743.5780 250.6542 446.2277 559.6749 29181.5138 446.2277 559.6749
ENERGY: 900000 0.0000 0.0000 0.0000 0.0000 -11311.2419 1565.0458 0.0000 0.0000 1595.7235 -8150.4725 270.9192 -9746.1961 -8146.8937 270.4752 251.0441 356.3541 29698.9773 4.2995 4.4273
TCL: Running 1000000 steps at 300 kelvin.
TCL: Setting parameter langevinTemp to 300
TCL: Running for 1000000 steps
ETITLE: TS BOND ANGLE DIHED IMPRP ELECT VDW BOUNDARY MISC KINETIC TOTAL TEMP POTENTIAL TOTAL3 TEMPAVG PRESSURE GPRESSURE VOLUME PRESSAVG GPRESSAVG
ENERGY: 900000 0.0000 0.0000 0.0000 0.0000 -11311.2419 1565.0458 0.0000 0.0000 1594.9015 -8151.2945 270.7797 -9746.1961 -8149.1832 270.7797 268.4229 356.9345 29698.9773 268.4229 356.9345
ENERGY: 1100000 0.0000 0.0000 0.0000 0.0000 -10797.9106 1425.8158 0.0000 0.0000 1799.4900 -7572.6048 305.5144 -9372.0949 -7568.7384 299.8108 -268.0305 -168.6114 31055.7893 2.6114 2.7614
ENERGY: 1300000 0.0000 0.0000 0.0000 0.0000 -10933.0336 1481.8373 0.0000 0.0000 1785.2802 -7665.9161 303.1018 -9451.1963 -7662.5767 300.6519 -38.3530 81.7836 30923.3230 3.7457 3.6326
ENERGY: 1500000 0.0000 0.0000 0.0000 0.0000 -10879.0340 1489.5748 0.0000 0.0000 1773.0619 -7616.3973 301.0274 -9389.4592 -7614.3190 299.2599 256.8394 246.9086 31233.8879 3.6631 3.6777
ENERGY: 1700000 0.0000 0.0000 0.0000 0.0000 -10695.4296 1344.9467 0.0000 0.0000 1796.5803 -7553.9026 305.0204 -9350.4829 -7550.7349 298.9531 -560.2469 -513.9737 30890.4711 2.7227 2.7273
ENERGY: 1900000 0.0000 0.0000 0.0000 0.0000 -10860.8016 1416.4405 0.0000 0.0000 1792.0068 -7652.3544 304.2439 -9444.3611 -7648.6193 300.1840 -551.0278 -514.5269 30983.4117 3.3810 3.2756
TCL: Exiting due to exit command.
