Info: SIMULATION PARAMETERS:
Info: TIMESTEP               2
Info: NUMBER OF STEPS        0
Info: STEPS PER CYCLE        10
Info: PERIODIC CELL BASIS 1  38.861 0 0
Info: PERIODIC CELL BASIS 2  0 34.696 0
Info: PERIODIC CELL BASIS 3  0 0 33.152
Info: PERIODIC CELL CENTER   0 0 0
Info: WRAPPING WATERS AROUND PERIODIC BOUNDARIES ON OUTPUT.
Info: WRAPPING ALL CLUSTERS AROUND PERIODIC BOUNDARIES ON OUTPUT.
Info: FIRST LDB TIMESTEP     50
Info: LAST LDB TIMESTEP     -1
Info: HOM BACKGROUND SCALING 1
Info: PME BACKGROUND SCALING 1
Info: MIN ATOMS PER PATCH    40
Info: EMPTY PATCH LOAD       40 ATOMS
Info: INITIAL TEMPERATURE    300
Info: CENTER OF MASS MOVING INITIALLY? NO
Info: DIELECTRIC             1
Info: EXCLUDE                SCALED ONE-FOUR
Info: 1-4 ELECTROSTATICS SCALED BY 0.833333
Info: MODIFIED 1-4 VDW PARAMETERS WILL BE USED
Info: DCD FILENAME           mobley_9942801_equil.dcd
Info: DCD FREQUENCY          100000
Info: DCD FIRST STEP         100000
Info: DCD FILE WILL CONTAIN UNIT CELL DATA
Info: XST FILENAME           mobley_9942801_equil.xst
Info: XST FREQUENCY          100000
Info: NO VELOCITY DCD OUTPUT
Info: NO FORCE DCD OUTPUT
Info: OUTPUT FILENAME        mobley_9942801_equil
Info: BINARY OUTPUT FILES WILL BE USED
Info: RESTART FILENAME       mobley_9942801_equil.restart
Info: RESTART FREQUENCY      100000
Info: BINARY RESTART FILES WILL BE USED
Info: CUTOFF                 9
Info: PAIRLIST DISTANCE      11
Info: PAIRLIST SHRINK RATE   0.01
Info: PAIRLIST GROW RATE     0.01
Info: PAIRLIST TRIGGER       0.3
Info: PAIRLISTS PER CYCLE    2
Info: PAIRLISTS ENABLED
Info: MARGIN                 8
Info: HYDROGEN GROUP CUTOFF  2.5
Info: PATCH DIMENSION        21.5
Info: ENERGY OUTPUT STEPS    100000
Info: ENERGY EVALUATION STEPS    100000
Info: OUTPUT ENERGY PRECISION 4
Info: CROSSTERM ENERGY INCLUDED IN DIHEDRAL
Info: TIMING OUTPUT STEPS    1000000
Info: PRESSURE OUTPUT STEPS  100000
Info: FIXED ATOMS ACTIVE
Info: LANGEVIN DYNAMICS ACTIVE
Info: LANGEVIN TEMPERATURE   30
Info: LANGEVIN USING BBK INTEGRATOR
Info: LANGEVIN DAMPING COEFFICIENT IS 1 INVERSE PS
Info: LANGEVIN DYNAMICS APPLIED TO HYDROGENS
Info: LANGEVIN PISTON PRESSURE CONTROL ACTIVE
Info:        TARGET PRESSURE IS 1.01325 BAR
Info:     OSCILLATION PERIOD IS 50 FS
Info:             DECAY TIME IS 25 FS
Info:     PISTON TEMPERATURE IS 300 K
Info:       PRESSURE CONTROL IS GROUP-BASED
Info:    INITIAL STRAIN RATE IS 0 0 0
Info:       CELL FLUCTUATION IS ISOTROPIC
Info: PARTICLE MESH EWALD (PME) ACTIVE
Info: PME TOLERANCE               1e-06
Info: PME EWALD COEFFICIENT       0.348832
Info: PME INTERPOLATION ORDER     4
Info: PME GRID DIMENSIONS         40 36 36
Info: PME MAXIMUM GRID SPACING    1
Info: FULL ELECTROSTATIC EVALUATION FREQUENCY      2
Info: USING VERLET I (r-RESPA) MTS SCHEME.
Info: C1 SPLITTING OF LONG RANGE ELECTROSTATICS
Info: PLACING ATOMS IN PATCHES BY HYDROGEN GROUPS
Info: RIGID BONDS TO HYDROGEN : ALL
Info:         ERROR TOLERANCE : 1e-08
Info:          MAX ITERATIONS : 100
Info: RIGID WATER USING SETTLE ALGORITHM
Info: RANDOM NUMBER SEED     1744725998
Info: USE HYDROGEN BONDS?    NO
Info: Using AMBER format force field!
Info: AMBER PARM FILE        mobley_9942801.prmtop
Info: COORDINATE PDB         mobley_9942801.pdb
Info: Exclusions will be read from PARM file!
Info: SCNB (VDW SCALING)     2
Info: USING ARITHMETIC MEAN TO COMBINE L-J SIGMA PARAMETERS
Info: BINARY COORDINATES     mobley_9942801_min.coor
Info: SUMMARY OF PARAMETERS:
Info: 7 BONDS
Info: 7 ANGLES
Info: 5 DIHEDRAL
Info: 0 IMPROPER
Info: 0 CROSSTERM
Info: 0 VDW
Info: 21 VDW_PAIRS
Info: 0 NBTHOLE_PAIRS
Info: STRUCTURE SUMMARY:
Info: 2988 ATOMS
Info: 2988 BONDS
Info: 36 ANGLES
Info: 51 DIHEDRALS
Info: 0 IMPROPERS
Info: 0 CROSSTERMS
Info: 3066 EXCLUSIONS
Info: 21 FIXED ATOMS
Info: 2979 RIGID BONDS
Info: 12 RIGID BONDS BETWEEN FIXED ATOMS
Info: 5934 DEGREES OF FREEDOM
Info: 998 HYDROGEN GROUPS
Info: 4 ATOMS IN LARGEST HYDROGEN GROUP
Info: 998 MIGRATION GROUPS
Info: 4 ATOMS IN LARGEST MIGRATION GROUP
Info: 9 HYDROGEN GROUPS WITH ALL ATOMS FIXED
Info: TOTAL MASS = 17938 amu
Info: TOTAL CHARGE = 0.000200041 e
Info: MASS DENSITY = 0.666393 g/cm^3
Info: ATOM DENSITY = 0.0668463 atoms/A^3
Info: ADDED 0 IMPLICIT EXCLUSIONS
Info: NONBONDED TABLE R-SQUARED SPACING: 0.0625
Info: NONBONDED TABLE SIZE: 705 POINTS
Info: REMOVING COM VELOCITY 0.371081 0.182682 0.0866512
TCL: Running for 100000 steps
ETITLE: TS BOND ANGLE DIHED IMPRP ELECT VDW BOUNDARY MISC KINETIC TOTAL TEMP POTENTIAL TOTAL3 TEMPAVG PRESSURE GPRESSURE VOLUME PRESSAVG GPRESSAVG
ENERGY: 0 0.0000 0.0000 0.0000 0.0000 -13789.6080 2424.5747 0.0000 0.0000 1761.2379 -9603.7954 298.7176 -11365.0333 -9603.4467 298.7176 472.0233 502.6137 44699.5463 472.0233 502.6137
ENERGY: 100000 0.0000 0.0000 0.0000 0.0000 -14416.3717 2577.9765 0.0000 0.0000 182.4805 -11655.9147 30.9499 -11838.3952 -11655.4635 30.8178 574.1281 641.7646 29654.8745 6.4653 6.5040
TCL: Running 100000 steps at 60 kelvin.
TCL: Setting parameter langevinTemp to 60
TCL: Running for 100000 steps
ETITLE: TS BOND ANGLE DIHED IMPRP ELECT VDW BOUNDARY MISC KINETIC TOTAL TEMP POTENTIAL TOTAL3 TEMPAVG PRESSURE GPRESSURE VOLUME PRESSAVG GPRESSAVG
ENERGY: 100000 0.0000 0.0000 0.0000 0.0000 -14416.3717 2577.9765 0.0000 0.0000 182.3946 -11656.0006 30.9353 -11838.3952 -11655.5739 30.9353 587.9349 641.6034 29654.8745 587.9349 641.6034
ENERGY: 200000 0.0000 0.0000 0.0000 0.0000 -14335.3130 2551.7313 0.0000 0.0000 359.2844 -11424.2973 60.9370 -11783.5817 -11423.4527 59.9230 642.5483 683.4311 29532.4611 4.6243 4.6257
TCL: Running 100000 steps at 90 kelvin.
TCL: Setting parameter langevinTemp to 90
TCL: Running for 100000 steps
ETITLE: TS BOND ANGLE DIHED IMPRP ELECT VDW BOUNDARY MISC KINETIC TOTAL TEMP POTENTIAL TOTAL3 TEMPAVG PRESSURE GPRESSURE VOLUME PRESSAVG GPRESSAVG
ENERGY: 200000 0.0000 0.0000 0.0000 0.0000 -14335.3130 2551.7313 0.0000 0.0000 359.1076 -11424.4741 60.9070 -11783.5817 -11423.7124 60.9070 642.9576 682.8099 29532.4611 642.9576 682.8099
ENERGY: 300000 0.0000 0.0000 0.0000 0.0000 -14027.7621 2374.9560 0.0000 0.0000 520.0969 -11132.7092 88.2119 -11652.8061 -11131.8973 89.8625 -196.7680 -124.1803 29583.2023 4.1864 4.1972
TCL: Running 100000 steps at 120 kelvin.
TCL: Setting parameter langevinTemp to 120
TCL: Running for 100000 steps
ETITLE: TS BOND ANGLE DIHED IMPRP ELECT VDW BOUNDARY MISC KINETIC TOTAL TEMP POTENTIAL TOTAL3 TEMPAVG PRESSURE GPRESSURE VOLUME PRESSAVG GPRESSAVG
ENERGY: 300000 0.0000 0.0000 0.0000 0.0000 -14027.7621 2374.9560 0.0000 0.0000 519.8446 -11132.9615 88.1691 -11652.8061 -11131.8789 88.1691 -184.4951 -125.1627 29583.2023 -184.4951 -125.1627
ENERGY: 400000 0.0000 0.0000 0.0000 0.0000 -13853.5878 2296.6508 0.0000 0.0000 716.9892 -10839.9478 121.6061 -11556.9370 -10838.0631 119.7974 -532.1371 -458.8154 29437.6281 4.1325 4.1996
TCL: Running 100000 steps at 150 kelvin.
TCL: Setting parameter langevinTemp to 150
TCL: Running for 100000 steps
ETITLE: TS BOND ANGLE DIHED IMPRP ELECT VDW BOUNDARY MISC KINETIC TOTAL TEMP POTENTIAL TOTAL3 TEMPAVG PRESSURE GPRESSURE VOLUME PRESSAVG GPRESSAVG
ENERGY: 400000 0.0000 0.0000 0.0000 0.0000 -13853.5878 2296.6508 0.0000 0.0000 716.6442 -10840.2928 121.5476 -11556.9370 -10838.5426 121.5476 -515.4296 -458.8102 29437.6281 -515.4296 -458.8102
ENERGY: 500000 0.0000 0.0000 0.0000 0.0000 -13743.9048 2353.4717 0.0000 0.0000 880.5433 -10509.8897 149.3460 -11390.4331 -10508.2742 149.8831 520.9767 570.3586 29382.1111 3.4287 3.5146
TCL: Running 100000 steps at 180 kelvin.
TCL: Setting parameter langevinTemp to 180
TCL: Running for 100000 steps
ETITLE: TS BOND ANGLE DIHED IMPRP ELECT VDW BOUNDARY MISC KINETIC TOTAL TEMP POTENTIAL TOTAL3 TEMPAVG PRESSURE GPRESSURE VOLUME PRESSAVG GPRESSAVG
ENERGY: 500000 0.0000 0.0000 0.0000 0.0000 -13743.9048 2353.4717 0.0000 0.0000 880.0991 -10510.3339 149.2706 -11390.4331 -10508.9815 149.2706 508.4784 570.3230 29382.1111 508.4784 570.3230
ENERGY: 600000 0.0000 0.0000 0.0000 0.0000 -13238.9930 2112.0557 0.0000 0.0000 1041.3794 -10085.5578 176.6249 -11126.9373 -10084.2183 179.9287 -308.6606 -222.6416 29266.1336 5.1398 5.0693
TCL: Running 100000 steps at 210 kelvin.
TCL: Setting parameter langevinTemp to 210
TCL: Running for 100000 steps
ETITLE: TS BOND ANGLE DIHED IMPRP ELECT VDW BOUNDARY MISC KINETIC TOTAL TEMP POTENTIAL TOTAL3 TEMPAVG PRESSURE GPRESSURE VOLUME PRESSAVG GPRESSAVG
ENERGY: 600000 0.0000 0.0000 0.0000 0.0000 -13238.9930 2112.0557 0.0000 0.0000 1040.8538 -10086.0834 176.5357 -11126.9373 -10083.8060 176.5357 -290.8135 -223.6941 29266.1336 -290.8135 -223.6941
ENERGY: 700000 0.0000 0.0000 0.0000 0.0000 -12568.1306 1911.2342 0.0000 0.0000 1248.8963 -9408.0002 211.8211 -10656.8965 -9405.5764 209.7536 -91.7244 -21.4723 29082.6656 3.9164 3.8284
TCL: Running 100000 steps at 240 kelvin.
TCL: Setting parameter langevinTemp to 240
TCL: Running for 100000 steps
ETITLE: TS BOND ANGLE DIHED IMPRP ELECT VDW BOUNDARY MISC KINETIC TOTAL TEMP POTENTIAL TOTAL3 TEMPAVG PRESSURE GPRESSURE VOLUME PRESSAVG GPRESSAVG
ENERGY: 700000 0.0000 0.0000 0.0000 0.0000 -12568.1306 1911.2342 0.0000 0.0000 1248.2720 -9408.6245 211.7152 -10656.8965 -9406.3334 211.7152 -103.4086 -21.7135 29082.6656 -103.4086 -21.7135
ENERGY: 800000 0.0000 0.0000 0.0000 0.0000 -11979.6562 1756.9571 0.0000 0.0000 1392.2222 -8830.4770 236.1301 -10222.6991 -8827.2325 239.8690 -251.9176 -127.7352 29933.9397 3.5746 3.5292
TCL: Running 100000 steps at 270 kelvin.
TCL: Setting parameter langevinTemp to 270
TCL: Running for 100000 steps
ETITLE: TS BOND ANGLE DIHED IMPRP ELECT VDW BOUNDARY MISC KINETIC TOTAL TEMP POTENTIAL TOTAL3 TEMPAVG PRESSURE GPRESSURE VOLUME PRESSAVG GPRESSAVG
ENERGY: 800000 0.0000 0.0000 0.0000 0.0000 -11979.6562 1756.9571 0.0000 0.0000 1391.5197 -8831.1795 236.0110 -10222.6991 -8828.6169 236.0110 -212.0511 -127.3548 29933.9397 -212.0511 -127.3548
ENERGY: 900000 0.0000 0.0000 0.0000 0.0000 -11327.9893 1530.0041 0.0000 0.0000 1631.5616 -8166.4235 276.7237 -9797.9851 -8160.7643 269.7017 -389.2781 -300.3857 29854.5865 1.8913 2.0194
TCL: Running 1000000 steps at 300 kelvin.
TCL: Setting parameter langevinTemp to 300
TCL: Running for 1000000 steps
ETITLE: TS BOND ANGLE DIHED IMPRP ELECT VDW BOUNDARY MISC KINETIC TOTAL TEMP POTENTIAL TOTAL3 TEMPAVG PRESSURE GPRESSURE VOLUME PRESSAVG GPRESSAVG
ENERGY: 900000 0.0000 0.0000 0.0000 0.0000 -11327.9893 1530.0041 0.0000 0.0000 1630.7607 -8167.2245 276.5878 -9797.9851 -8164.2126 276.5878 -386.0509 -298.0809 29854.5865 -386.0509 -298.0809
ENERGY: 1100000 0.0000 0.0000 0.0000 0.0000 -10861.6081 1484.5245 0.0000 0.0000 1740.0531 -7637.0305 295.1245 -9377.0835 -7632.0048 300.4442 239.9264 320.6645 30818.6248 3.2802 3.1160
ENERGY: 1300000 0.0000 0.0000 0.0000 0.0000 -10756.2516 1373.8479 0.0000 0.0000 1775.7341 -7606.6696 301.1763 -9382.4037 -7605.2640 300.0967 -629.8886 -579.9164 30864.1320 4.7869 4.4983
ENERGY: 1500000 0.0000 0.0000 0.0000 0.0000 -10842.5573 1457.6174 0.0000 0.0000 1723.8626 -7661.0774 292.3785 -9384.9399 -7655.9491 300.0333 34.9969 118.7272 30580.8902 3.1997 3.0536
ENERGY: 1700000 0.0000 0.0000 0.0000 0.0000 -10641.2571 1313.1638 0.0000 0.0000 1779.8088 -7548.2844 301.8674 -9328.0933 -7545.0066 300.7995 -1125.1847 -1012.4900 31283.3148 2.8520 2.6269
ENERGY: 1900000 0.0000 0.0000 0.0000 0.0000 -10800.9824 1443.7069 0.0000 0.0000 1754.5766 -7602.6988 297.5878 -9357.2754 -7600.3103 300.4593 -225.0051 -237.4365 31202.0574 3.9407 3.8092
TCL: Exiting due to exit command.
