Info: SIMULATION PARAMETERS:
Info: TIMESTEP               2
Info: NUMBER OF STEPS        0
Info: STEPS PER CYCLE        10
Info: PERIODIC CELL BASIS 1  37.133 0 0
Info: PERIODIC CELL BASIS 2  0 34.26 0
Info: PERIODIC CELL BASIS 3  0 0 34.229
Info: PERIODIC CELL CENTER   0 0 0
Info: WRAPPING WATERS AROUND PERIODIC BOUNDARIES ON OUTPUT.
Info: WRAPPING ALL CLUSTERS AROUND PERIODIC BOUNDARIES ON OUTPUT.
Info: FIRST LDB TIMESTEP     50
Info: LAST LDB TIMESTEP     -1
Info: HOM BACKGROUND SCALING 1
Info: PME BACKGROUND SCALING 1
Info: MIN ATOMS PER PATCH    40
Info: EMPTY PATCH LOAD       40 ATOMS
Info: INITIAL TEMPERATURE    300
Info: CENTER OF MASS MOVING INITIALLY? NO
Info: DIELECTRIC             1
Info: EXCLUDE                SCALED ONE-FOUR
Info: 1-4 ELECTROSTATICS SCALED BY 0.833333
Info: MODIFIED 1-4 VDW PARAMETERS WILL BE USED
Info: DCD FILENAME           mobley_9112978_equil.dcd
Info: DCD FREQUENCY          100000
Info: DCD FIRST STEP         100000
Info: DCD FILE WILL CONTAIN UNIT CELL DATA
Info: XST FILENAME           mobley_9112978_equil.xst
Info: XST FREQUENCY          100000
Info: NO VELOCITY DCD OUTPUT
Info: NO FORCE DCD OUTPUT
Info: OUTPUT FILENAME        mobley_9112978_equil
Info: BINARY OUTPUT FILES WILL BE USED
Info: RESTART FILENAME       mobley_9112978_equil.restart
Info: RESTART FREQUENCY      100000
Info: BINARY RESTART FILES WILL BE USED
Info: CUTOFF                 9
Info: PAIRLIST DISTANCE      11
Info: PAIRLIST SHRINK RATE   0.01
Info: PAIRLIST GROW RATE     0.01
Info: PAIRLIST TRIGGER       0.3
Info: PAIRLISTS PER CYCLE    2
Info: PAIRLISTS ENABLED
Info: MARGIN                 8
Info: HYDROGEN GROUP CUTOFF  2.5
Info: PATCH DIMENSION        21.5
Info: ENERGY OUTPUT STEPS    100000
Info: ENERGY EVALUATION STEPS    100000
Info: OUTPUT ENERGY PRECISION 4
Info: CROSSTERM ENERGY INCLUDED IN DIHEDRAL
Info: TIMING OUTPUT STEPS    1000000
Info: PRESSURE OUTPUT STEPS  100000
Info: FIXED ATOMS ACTIVE
Info: LANGEVIN DYNAMICS ACTIVE
Info: LANGEVIN TEMPERATURE   30
Info: LANGEVIN USING BBK INTEGRATOR
Info: LANGEVIN DAMPING COEFFICIENT IS 1 INVERSE PS
Info: LANGEVIN DYNAMICS APPLIED TO HYDROGENS
Info: LANGEVIN PISTON PRESSURE CONTROL ACTIVE
Info:        TARGET PRESSURE IS 1.01325 BAR
Info:     OSCILLATION PERIOD IS 50 FS
Info:             DECAY TIME IS 25 FS
Info:     PISTON TEMPERATURE IS 300 K
Info:       PRESSURE CONTROL IS GROUP-BASED
Info:    INITIAL STRAIN RATE IS 0 0 0
Info:       CELL FLUCTUATION IS ISOTROPIC
Info: PARTICLE MESH EWALD (PME) ACTIVE
Info: PME TOLERANCE               1e-06
Info: PME EWALD COEFFICIENT       0.348832
Info: PME INTERPOLATION ORDER     4
Info: PME GRID DIMENSIONS         40 36 36
Info: PME MAXIMUM GRID SPACING    1
Info: FULL ELECTROSTATIC EVALUATION FREQUENCY      2
Info: USING VERLET I (r-RESPA) MTS SCHEME.
Info: C1 SPLITTING OF LONG RANGE ELECTROSTATICS
Info: PLACING ATOMS IN PATCHES BY HYDROGEN GROUPS
Info: RIGID BONDS TO HYDROGEN : ALL
Info:         ERROR TOLERANCE : 1e-08
Info:          MAX ITERATIONS : 100
Info: RIGID WATER USING SETTLE ALGORITHM
Info: RANDOM NUMBER SEED     1744721211
Info: USE HYDROGEN BONDS?    NO
Info: Using AMBER format force field!
Info: AMBER PARM FILE        mobley_9112978.prmtop
Info: COORDINATE PDB         mobley_9112978.pdb
Info: Exclusions will be read from PARM file!
Info: SCNB (VDW SCALING)     2
Info: USING ARITHMETIC MEAN TO COMBINE L-J SIGMA PARAMETERS
Info: BINARY COORDINATES     mobley_9112978_min.coor
Info: SUMMARY OF PARAMETERS:
Info: 7 BONDS
Info: 7 ANGLES
Info: 8 DIHEDRAL
Info: 0 IMPROPER
Info: 0 CROSSTERM
Info: 0 VDW
Info: 21 VDW_PAIRS
Info: 0 NBTHOLE_PAIRS
Info: STRUCTURE SUMMARY:
Info: 2940 ATOMS
Info: 2939 BONDS
Info: 24 ANGLES
Info: 38 DIHEDRALS
Info: 0 IMPROPERS
Info: 0 CROSSTERMS
Info: 2988 EXCLUSIONS
Info: 15 FIXED ATOMS
Info: 2935 RIGID BONDS
Info: 10 RIGID BONDS BETWEEN FIXED ATOMS
Info: 5850 DEGREES OF FREEDOM
Info: 980 HYDROGEN GROUPS
Info: 4 ATOMS IN LARGEST HYDROGEN GROUP
Info: 980 MIGRATION GROUPS
Info: 4 ATOMS IN LARGEST MIGRATION GROUP
Info: 5 HYDROGEN GROUPS WITH ALL ATOMS FIXED
Info: TOTAL MASS = 17635.7 amu
Info: TOTAL CHARGE = 0.000100017 e
Info: MASS DENSITY = 0.672529 g/cm^3
Info: ATOM DENSITY = 0.0675158 atoms/A^3
Info: ADDED 0 IMPLICIT EXCLUSIONS
Info: NONBONDED TABLE R-SQUARED SPACING: 0.0625
Info: NONBONDED TABLE SIZE: 705 POINTS
Info: REMOVING COM VELOCITY 0.0393241 0.0236148 0.00952597
TCL: Running for 100000 steps
ETITLE: TS BOND ANGLE DIHED IMPRP ELECT VDW BOUNDARY MISC KINETIC TOTAL TEMP POTENTIAL TOTAL3 TEMPAVG PRESSURE GPRESSURE VOLUME PRESSAVG GPRESSAVG
ENERGY: 0 0.0000 0.0000 0.0000 0.0000 -13507.3511 2346.2733 0.0000 0.0000 1764.4552 -9396.6226 303.5604 -11161.0778 -9396.2889 303.5604 242.4475 280.0462 43545.3322 242.4475 280.0462
ENERGY: 100000 0.0000 0.0000 0.0000 0.0000 -14110.3713 2405.8944 0.0000 0.0000 171.2841 -11533.1929 29.4681 -11704.4770 -11532.8819 30.9448 -411.6026 -329.1427 28555.0664 3.9217 3.8618
TCL: Running 100000 steps at 60 kelvin.
TCL: Setting parameter langevinTemp to 60
TCL: Running for 100000 steps
ETITLE: TS BOND ANGLE DIHED IMPRP ELECT VDW BOUNDARY MISC KINETIC TOTAL TEMP POTENTIAL TOTAL3 TEMPAVG PRESSURE GPRESSURE VOLUME PRESSAVG GPRESSAVG
ENERGY: 100000 0.0000 0.0000 0.0000 0.0000 -14110.3713 2405.8944 0.0000 0.0000 171.2019 -11533.2751 29.4539 -11704.4770 -11532.9065 29.4539 -400.0882 -329.2516 28555.0664 -400.0882 -329.2516
ENERGY: 200000 0.0000 0.0000 0.0000 0.0000 -14137.0659 2511.5086 0.0000 0.0000 362.4249 -11263.1325 62.3523 -11625.5573 -11262.5725 59.8419 875.6610 978.8273 28260.9290 3.8399 3.7736
TCL: Running 100000 steps at 90 kelvin.
TCL: Setting parameter langevinTemp to 90
TCL: Running for 100000 steps
ETITLE: TS BOND ANGLE DIHED IMPRP ELECT VDW BOUNDARY MISC KINETIC TOTAL TEMP POTENTIAL TOTAL3 TEMPAVG PRESSURE GPRESSURE VOLUME PRESSAVG GPRESSAVG
ENERGY: 200000 0.0000 0.0000 0.0000 0.0000 -14137.0659 2511.5086 0.0000 0.0000 362.2579 -11263.2995 62.3236 -11625.5573 -11262.5940 62.3236 909.9492 978.4050 28260.9290 909.9492 978.4050
ENERGY: 300000 0.0000 0.0000 0.0000 0.0000 -14031.8565 2471.3539 0.0000 0.0000 528.8381 -11031.6645 90.9824 -11560.5026 -11030.6950 90.0040 875.4205 949.8785 28195.5560 2.3986 2.4329
TCL: Running 100000 steps at 120 kelvin.
TCL: Setting parameter langevinTemp to 120
TCL: Running for 100000 steps
ETITLE: TS BOND ANGLE DIHED IMPRP ELECT VDW BOUNDARY MISC KINETIC TOTAL TEMP POTENTIAL TOTAL3 TEMPAVG PRESSURE GPRESSURE VOLUME PRESSAVG GPRESSAVG
ENERGY: 300000 0.0000 0.0000 0.0000 0.0000 -14031.8565 2471.3539 0.0000 0.0000 528.5762 -11031.9263 90.9373 -11560.5026 -11030.9427 90.9373 902.8060 950.3457 28195.5560 902.8060 950.3457
ENERGY: 400000 0.0000 0.0000 0.0000 0.0000 -13838.9737 2403.3288 0.0000 0.0000 698.1140 -10737.5310 120.1049 -11435.6450 -10736.7862 119.8057 635.2962 670.1537 28391.8691 2.9103 2.9076
TCL: Running 100000 steps at 150 kelvin.
TCL: Setting parameter langevinTemp to 150
TCL: Running for 100000 steps
ETITLE: TS BOND ANGLE DIHED IMPRP ELECT VDW BOUNDARY MISC KINETIC TOTAL TEMP POTENTIAL TOTAL3 TEMPAVG PRESSURE GPRESSURE VOLUME PRESSAVG GPRESSAVG
ENERGY: 400000 0.0000 0.0000 0.0000 0.0000 -13838.9737 2403.3288 0.0000 0.0000 697.7677 -10737.8772 120.0454 -11435.6450 -10736.5398 120.0454 618.0433 668.8716 28391.8691 618.0433 668.8716
ENERGY: 500000 0.0000 0.0000 0.0000 0.0000 -13590.6722 2319.7082 0.0000 0.0000 889.9440 -10381.0201 153.1078 -11270.9640 -10379.3766 149.6981 516.2348 550.8909 28647.7178 3.9600 3.7508
TCL: Running 100000 steps at 180 kelvin.
TCL: Setting parameter langevinTemp to 180
TCL: Running for 100000 steps
ETITLE: TS BOND ANGLE DIHED IMPRP ELECT VDW BOUNDARY MISC KINETIC TOTAL TEMP POTENTIAL TOTAL3 TEMPAVG PRESSURE GPRESSURE VOLUME PRESSAVG GPRESSAVG
ENERGY: 500000 0.0000 0.0000 0.0000 0.0000 -13590.6722 2319.7082 0.0000 0.0000 889.5128 -10381.4513 153.0336 -11270.9640 -10379.6211 153.0336 499.4429 551.3899 28647.7178 499.4429 551.3899
ENERGY: 600000 0.0000 0.0000 0.0000 0.0000 -13116.3659 2142.1761 0.0000 0.0000 1054.6816 -9919.5083 181.4495 -10974.1898 -9916.7370 179.7053 275.1782 349.1892 28509.3987 5.6721 5.5490
TCL: Running 100000 steps at 210 kelvin.
TCL: Setting parameter langevinTemp to 210
TCL: Running for 100000 steps
ETITLE: TS BOND ANGLE DIHED IMPRP ELECT VDW BOUNDARY MISC KINETIC TOTAL TEMP POTENTIAL TOTAL3 TEMPAVG PRESSURE GPRESSURE VOLUME PRESSAVG GPRESSAVG
ENERGY: 600000 0.0000 0.0000 0.0000 0.0000 -13116.3659 2142.1761 0.0000 0.0000 1054.1499 -9920.0400 181.3581 -10974.1898 -9918.3762 181.3581 299.9032 348.6965 28509.3987 299.9032 348.6965
ENERGY: 700000 0.0000 0.0000 0.0000 0.0000 -12417.9477 1943.8093 0.0000 0.0000 1252.8797 -9221.2586 215.5480 -10474.1383 -9217.4609 209.6550 496.9623 596.1852 28561.5744 3.4714 3.3549
TCL: Running 100000 steps at 240 kelvin.
TCL: Setting parameter langevinTemp to 240
TCL: Running for 100000 steps
ETITLE: TS BOND ANGLE DIHED IMPRP ELECT VDW BOUNDARY MISC KINETIC TOTAL TEMP POTENTIAL TOTAL3 TEMPAVG PRESSURE GPRESSURE VOLUME PRESSAVG GPRESSAVG
ENERGY: 700000 0.0000 0.0000 0.0000 0.0000 -12417.9477 1943.8093 0.0000 0.0000 1252.2458 -9221.8925 215.4389 -10474.1383 -9219.5718 215.4389 524.6362 597.3489 28561.5744 524.6362 597.3489
ENERGY: 800000 0.0000 0.0000 0.0000 0.0000 -11723.0071 1734.7173 0.0000 0.0000 1376.1933 -8612.0964 236.7631 -9988.2898 -8609.6222 239.9370 509.9114 573.7585 28797.7784 5.6724 5.6316
TCL: Running 100000 steps at 270 kelvin.
TCL: Setting parameter langevinTemp to 270
TCL: Running for 100000 steps
ETITLE: TS BOND ANGLE DIHED IMPRP ELECT VDW BOUNDARY MISC KINETIC TOTAL TEMP POTENTIAL TOTAL3 TEMPAVG PRESSURE GPRESSURE VOLUME PRESSAVG GPRESSAVG
ENERGY: 800000 0.0000 0.0000 0.0000 0.0000 -11723.0071 1734.7173 0.0000 0.0000 1375.5054 -8612.7844 236.6447 -9988.2898 -8610.4713 236.6447 495.9865 574.1650 28797.7784 495.9865 574.1650
ENERGY: 900000 0.0000 0.0000 0.0000 0.0000 -11171.5625 1542.5828 0.0000 0.0000 1573.0722 -8055.9076 270.6345 -9628.9798 -8053.4682 270.3566 -71.6358 27.3214 29342.1272 2.6787 2.5821
TCL: Running 1000000 steps at 300 kelvin.
TCL: Setting parameter langevinTemp to 300
TCL: Running for 1000000 steps
ETITLE: TS BOND ANGLE DIHED IMPRP ELECT VDW BOUNDARY MISC KINETIC TOTAL TEMP POTENTIAL TOTAL3 TEMPAVG PRESSURE GPRESSURE VOLUME PRESSAVG GPRESSAVG
ENERGY: 900000 0.0000 0.0000 0.0000 0.0000 -11171.5625 1542.5828 0.0000 0.0000 1572.2687 -8056.7110 270.4963 -9628.9798 -8054.2546 270.4963 -50.5123 26.0085 29342.1272 -50.5123 26.0085
ENERGY: 1100000 0.0000 0.0000 0.0000 0.0000 -10536.9121 1380.6415 0.0000 0.0000 1751.8266 -7404.4440 301.3878 -9156.2706 -7401.3254 300.3943 -298.3987 -219.2411 30383.0616 3.7611 3.7015
ENERGY: 1300000 0.0000 0.0000 0.0000 0.0000 -10808.0725 1516.6626 0.0000 0.0000 1724.7531 -7566.6568 296.7300 -9291.4099 -7563.7436 300.0661 602.2334 609.1628 30233.9874 4.5031 4.4617
ENERGY: 1500000 0.0000 0.0000 0.0000 0.0000 -10748.2100 1511.6315 0.0000 0.0000 1709.3533 -7527.2253 294.0806 -9236.5786 -7526.1002 300.2889 719.5641 796.1814 29926.2897 3.2615 3.1103
ENERGY: 1700000 0.0000 0.0000 0.0000 0.0000 -10702.1951 1443.3607 0.0000 0.0000 1773.3108 -7485.5236 305.0840 -9258.8344 -7484.0636 300.2855 153.5394 235.4779 30082.0461 3.2079 3.2030
ENERGY: 1900000 0.0000 0.0000 0.0000 0.0000 -10631.2249 1373.7809 0.0000 0.0000 1727.4577 -7529.9862 297.1953 -9257.4440 -7526.2784 300.5464 -647.6758 -524.2413 30461.9268 3.2498 3.2738
TCL: Exiting due to exit command.
