Info: SIMULATION PARAMETERS:
Info: TIMESTEP               2
Info: NUMBER OF STEPS        0
Info: STEPS PER CYCLE        10
Info: PERIODIC CELL BASIS 1  37.133 0 0
Info: PERIODIC CELL BASIS 2  0 34.26 0
Info: PERIODIC CELL BASIS 3  0 0 34.229
Info: PERIODIC CELL CENTER   0 0 0
Info: WRAPPING WATERS AROUND PERIODIC BOUNDARIES ON OUTPUT.
Info: WRAPPING ALL CLUSTERS AROUND PERIODIC BOUNDARIES ON OUTPUT.
Info: FIRST LDB TIMESTEP     50
Info: LAST LDB TIMESTEP     -1
Info: HOM BACKGROUND SCALING 1
Info: PME BACKGROUND SCALING 1
Info: MIN ATOMS PER PATCH    40
Info: EMPTY PATCH LOAD       40 ATOMS
Info: INITIAL TEMPERATURE    300
Info: CENTER OF MASS MOVING INITIALLY? NO
Info: DIELECTRIC             1
Info: EXCLUDE                SCALED ONE-FOUR
Info: 1-4 ELECTROSTATICS SCALED BY 0.833333
Info: MODIFIED 1-4 VDW PARAMETERS WILL BE USED
Info: DCD FILENAME           mobley_6981465_equil.dcd
Info: DCD FREQUENCY          100000
Info: DCD FIRST STEP         100000
Info: DCD FILE WILL CONTAIN UNIT CELL DATA
Info: XST FILENAME           mobley_6981465_equil.xst
Info: XST FREQUENCY          100000
Info: NO VELOCITY DCD OUTPUT
Info: NO FORCE DCD OUTPUT
Info: OUTPUT FILENAME        mobley_6981465_equil
Info: BINARY OUTPUT FILES WILL BE USED
Info: RESTART FILENAME       mobley_6981465_equil.restart
Info: RESTART FREQUENCY      100000
Info: BINARY RESTART FILES WILL BE USED
Info: CUTOFF                 9
Info: PAIRLIST DISTANCE      11
Info: PAIRLIST SHRINK RATE   0.01
Info: PAIRLIST GROW RATE     0.01
Info: PAIRLIST TRIGGER       0.3
Info: PAIRLISTS PER CYCLE    2
Info: PAIRLISTS ENABLED
Info: MARGIN                 8
Info: HYDROGEN GROUP CUTOFF  2.5
Info: PATCH DIMENSION        21.5
Info: ENERGY OUTPUT STEPS    100000
Info: ENERGY EVALUATION STEPS    100000
Info: OUTPUT ENERGY PRECISION 4
Info: CROSSTERM ENERGY INCLUDED IN DIHEDRAL
Info: TIMING OUTPUT STEPS    1000000
Info: PRESSURE OUTPUT STEPS  100000
Info: FIXED ATOMS ACTIVE
Info: LANGEVIN DYNAMICS ACTIVE
Info: LANGEVIN TEMPERATURE   30
Info: LANGEVIN USING BBK INTEGRATOR
Info: LANGEVIN DAMPING COEFFICIENT IS 1 INVERSE PS
Info: LANGEVIN DYNAMICS APPLIED TO HYDROGENS
Info: LANGEVIN PISTON PRESSURE CONTROL ACTIVE
Info:        TARGET PRESSURE IS 1.01325 BAR
Info:     OSCILLATION PERIOD IS 50 FS
Info:             DECAY TIME IS 25 FS
Info:     PISTON TEMPERATURE IS 300 K
Info:       PRESSURE CONTROL IS GROUP-BASED
Info:    INITIAL STRAIN RATE IS 0 0 0
Info:       CELL FLUCTUATION IS ISOTROPIC
Info: PARTICLE MESH EWALD (PME) ACTIVE
Info: PME TOLERANCE               1e-06
Info: PME EWALD COEFFICIENT       0.348832
Info: PME INTERPOLATION ORDER     4
Info: PME GRID DIMENSIONS         40 36 36
Info: PME MAXIMUM GRID SPACING    1
Info: FULL ELECTROSTATIC EVALUATION FREQUENCY      2
Info: USING VERLET I (r-RESPA) MTS SCHEME.
Info: C1 SPLITTING OF LONG RANGE ELECTROSTATICS
Info: PLACING ATOMS IN PATCHES BY HYDROGEN GROUPS
Info: RIGID BONDS TO HYDROGEN : ALL
Info:         ERROR TOLERANCE : 1e-08
Info:          MAX ITERATIONS : 100
Info: RIGID WATER USING SETTLE ALGORITHM
Info: RANDOM NUMBER SEED     1744721339
Info: USE HYDROGEN BONDS?    NO
Info: Using AMBER format force field!
Info: AMBER PARM FILE        mobley_6981465.prmtop
Info: COORDINATE PDB         mobley_6981465.pdb
Info: Exclusions will be read from PARM file!
Info: SCNB (VDW SCALING)     2
Info: USING ARITHMETIC MEAN TO COMBINE L-J SIGMA PARAMETERS
Info: BINARY COORDINATES     mobley_6981465_min.coor
Info: SUMMARY OF PARAMETERS:
Info: 9 BONDS
Info: 11 ANGLES
Info:   11 HARMONIC
Info:   0 COSINE-BASED
Info: 16 DIHEDRAL
Info: 0 IMPROPER
Info: 0 CROSSTERM
Info: 0 VDW
Info: 36 VDW_PAIRS
Info: 0 NBTHOLE_PAIRS
Info: STRUCTURE SUMMARY:
Info: 2909 ATOMS
Info: 2908 BONDS
Info: 28 ANGLES
Info: 47 DIHEDRALS
Info: 0 IMPROPERS
Info: 0 CROSSTERMS
Info: 2965 EXCLUSIONS
Info: 17 FIXED ATOMS
Info: 2902 RIGID BONDS
Info: 10 RIGID BONDS BETWEEN FIXED ATOMS
Info: 5784 DEGREES OF FREEDOM
Info: 971 HYDROGEN GROUPS
Info: 4 ATOMS IN LARGEST HYDROGEN GROUP
Info: 971 MIGRATION GROUPS
Info: 4 ATOMS IN LARGEST MIGRATION GROUP
Info: 7 HYDROGEN GROUPS WITH ALL ATOMS FIXED
Info: TOTAL MASS = 17469.6 amu
Info: TOTAL CHARGE = -4.47035e-08 e
Info: MASS DENSITY = 0.666192 g/cm^3
Info: ATOM DENSITY = 0.0668039 atoms/A^3
Info: ADDED 0 IMPLICIT EXCLUSIONS
Info: NONBONDED TABLE R-SQUARED SPACING: 0.0625
Info: NONBONDED TABLE SIZE: 705 POINTS
Info: REMOVING COM VELOCITY -0.00725927 0.0343763 -0.131125
TCL: Running for 100000 steps
ETITLE: TS BOND ANGLE DIHED IMPRP ELECT VDW BOUNDARY MISC KINETIC TOTAL TEMP POTENTIAL TOTAL3 TEMPAVG PRESSURE GPRESSURE VOLUME PRESSAVG GPRESSAVG
ENERGY: 0 0.0000 0.0000 0.0000 0.0000 -13442.3452 2346.2627 0.0000 0.0000 1736.6766 -9359.4059 302.1907 -11096.0825 -9359.0632 302.1907 323.3083 365.2156 43545.3322 323.3083 365.2156
ENERGY: 100000 0.0000 0.0000 0.0000 0.0000 -14120.6368 2484.3651 0.0000 0.0000 181.0384 -11455.2333 31.5016 -11636.2717 -11454.6420 30.8707 583.9083 648.2655 28030.3919 4.1402 4.1394
TCL: Running 100000 steps at 60 kelvin.
TCL: Setting parameter langevinTemp to 60
TCL: Running for 100000 steps
ETITLE: TS BOND ANGLE DIHED IMPRP ELECT VDW BOUNDARY MISC KINETIC TOTAL TEMP POTENTIAL TOTAL3 TEMPAVG PRESSURE GPRESSURE VOLUME PRESSAVG GPRESSAVG
ENERGY: 100000 0.0000 0.0000 0.0000 0.0000 -14120.6368 2484.3651 0.0000 0.0000 180.9492 -11455.3226 31.4861 -11636.2717 -11454.9548 31.4861 592.5231 648.3615 28030.3919 592.5231 648.3615
ENERGY: 200000 0.0000 0.0000 0.0000 0.0000 -14137.9574 2595.4646 0.0000 0.0000 353.7023 -11188.7905 61.5460 -11542.4928 -11187.7326 59.9921 1877.0796 1933.7100 27850.4058 3.1923 3.2176
TCL: Running 100000 steps at 90 kelvin.
TCL: Setting parameter langevinTemp to 90
TCL: Running for 100000 steps
ETITLE: TS BOND ANGLE DIHED IMPRP ELECT VDW BOUNDARY MISC KINETIC TOTAL TEMP POTENTIAL TOTAL3 TEMPAVG PRESSURE GPRESSURE VOLUME PRESSAVG GPRESSAVG
ENERGY: 200000 0.0000 0.0000 0.0000 0.0000 -14137.9574 2595.4646 0.0000 0.0000 353.5317 -11188.9611 61.5163 -11542.4928 -11188.3969 61.5163 1875.9033 1933.9075 27850.4058 1875.9033 1933.9075
ENERGY: 300000 0.0000 0.0000 0.0000 0.0000 -13580.1689 2145.5942 0.0000 0.0000 511.2405 -10923.3342 88.9585 -11434.5747 -10922.0636 90.0828 -1759.5755 -1696.4395 28689.1579 3.6728 3.5691
TCL: Running 100000 steps at 120 kelvin.
TCL: Setting parameter langevinTemp to 120
TCL: Running for 100000 steps
ETITLE: TS BOND ANGLE DIHED IMPRP ELECT VDW BOUNDARY MISC KINETIC TOTAL TEMP POTENTIAL TOTAL3 TEMPAVG PRESSURE GPRESSURE VOLUME PRESSAVG GPRESSAVG
ENERGY: 300000 0.0000 0.0000 0.0000 0.0000 -13580.1689 2145.5942 0.0000 0.0000 510.9735 -10923.6012 88.9120 -11434.5747 -10922.4974 88.9120 -1744.7541 -1696.6624 28689.1579 -1744.7541 -1696.6624
ENERGY: 400000 0.0000 0.0000 0.0000 0.0000 -13624.7825 2261.8732 0.0000 0.0000 715.9279 -10646.9814 124.5751 -11362.9093 -10645.5898 120.0245 -419.0716 -340.9684 28437.1561 2.5180 2.4917
TCL: Running 100000 steps at 150 kelvin.
TCL: Setting parameter langevinTemp to 150
TCL: Running for 100000 steps
ETITLE: TS BOND ANGLE DIHED IMPRP ELECT VDW BOUNDARY MISC KINETIC TOTAL TEMP POTENTIAL TOTAL3 TEMPAVG PRESSURE GPRESSURE VOLUME PRESSAVG GPRESSAVG
ENERGY: 400000 0.0000 0.0000 0.0000 0.0000 -13624.7825 2261.8732 0.0000 0.0000 715.5867 -10647.3226 124.5158 -11362.9093 -10646.1687 124.5158 -387.6708 -340.7547 28437.1561 -387.6708 -340.7547
ENERGY: 500000 0.0000 0.0000 0.0000 0.0000 -13427.0128 2261.0355 0.0000 0.0000 861.0957 -10304.8815 149.8351 -11165.9772 -10301.7239 149.7609 419.7990 461.8244 28310.2077 3.2408 3.2738
TCL: Running 100000 steps at 180 kelvin.
TCL: Setting parameter langevinTemp to 180
TCL: Running for 100000 steps
ETITLE: TS BOND ANGLE DIHED IMPRP ELECT VDW BOUNDARY MISC KINETIC TOTAL TEMP POTENTIAL TOTAL3 TEMPAVG PRESSURE GPRESSURE VOLUME PRESSAVG GPRESSAVG
ENERGY: 500000 0.0000 0.0000 0.0000 0.0000 -13427.0128 2261.0355 0.0000 0.0000 860.6775 -10305.2997 149.7623 -11165.9772 -10304.1229 149.7623 406.4750 462.6345 28310.2077 406.4750 462.6345
ENERGY: 600000 0.0000 0.0000 0.0000 0.0000 -12751.1893 1921.2436 0.0000 0.0000 1023.4877 -9806.4580 178.0921 -10829.9457 -9803.8203 180.0703 -1168.2812 -1111.4032 28592.2323 3.8804 3.8141
TCL: Running 100000 steps at 210 kelvin.
TCL: Setting parameter langevinTemp to 210
TCL: Running for 100000 steps
ETITLE: TS BOND ANGLE DIHED IMPRP ELECT VDW BOUNDARY MISC KINETIC TOTAL TEMP POTENTIAL TOTAL3 TEMPAVG PRESSURE GPRESSURE VOLUME PRESSAVG GPRESSAVG
ENERGY: 600000 0.0000 0.0000 0.0000 0.0000 -12751.1893 1921.2436 0.0000 0.0000 1022.9801 -9806.9656 178.0038 -10829.9457 -9805.4285 178.0038 -1175.5850 -1111.2171 28592.2323 -1175.5850 -1111.2171
ENERGY: 700000 0.0000 0.0000 0.0000 0.0000 -12422.5784 1984.8083 0.0000 0.0000 1215.2286 -9222.5416 211.4560 -10437.7702 -9221.3869 209.9569 1190.2904 1310.9035 27896.4683 4.7506 4.8568
TCL: Running 100000 steps at 240 kelvin.
TCL: Setting parameter langevinTemp to 240
TCL: Running for 100000 steps
ETITLE: TS BOND ANGLE DIHED IMPRP ELECT VDW BOUNDARY MISC KINETIC TOTAL TEMP POTENTIAL TOTAL3 TEMPAVG PRESSURE GPRESSURE VOLUME PRESSAVG GPRESSAVG
ENERGY: 700000 0.0000 0.0000 0.0000 0.0000 -12422.5784 1984.8083 0.0000 0.0000 1214.6152 -9223.1550 211.3493 -10437.7702 -9221.1147 211.3493 1233.2436 1309.6985 27896.4683 1233.2436 1309.6985
ENERGY: 800000 0.0000 0.0000 0.0000 0.0000 -11669.2020 1695.8395 0.0000 0.0000 1303.8064 -8669.5561 226.8690 -9973.3626 -8668.8376 240.2339 -89.9343 20.0198 28896.5628 4.1367 3.8867
TCL: Running 100000 steps at 270 kelvin.
TCL: Setting parameter langevinTemp to 270
TCL: Running for 100000 steps
ETITLE: TS BOND ANGLE DIHED IMPRP ELECT VDW BOUNDARY MISC KINETIC TOTAL TEMP POTENTIAL TOTAL3 TEMPAVG PRESSURE GPRESSURE VOLUME PRESSAVG GPRESSAVG
ENERGY: 800000 0.0000 0.0000 0.0000 0.0000 -11669.2020 1695.8395 0.0000 0.0000 1303.1087 -8670.2538 226.7476 -9973.3626 -8668.3648 226.7476 -67.3481 19.5412 28896.5628 -67.3481 19.5412
ENERGY: 900000 0.0000 0.0000 0.0000 0.0000 -11229.0672 1615.7420 0.0000 0.0000 1543.3028 -8070.0224 268.5426 -9613.3252 -8068.1430 270.1707 587.2835 645.9904 29018.8075 3.6347 3.5871
TCL: Running 1000000 steps at 300 kelvin.
TCL: Setting parameter langevinTemp to 300
TCL: Running for 1000000 steps
ETITLE: TS BOND ANGLE DIHED IMPRP ELECT VDW BOUNDARY MISC KINETIC TOTAL TEMP POTENTIAL TOTAL3 TEMPAVG PRESSURE GPRESSURE VOLUME PRESSAVG GPRESSAVG
ENERGY: 900000 0.0000 0.0000 0.0000 0.0000 -11229.0672 1615.7420 0.0000 0.0000 1542.5201 -8070.8051 268.4064 -9613.3252 -8068.7675 268.4064 553.0842 644.1484 29018.8075 553.0842 644.1484
ENERGY: 1100000 0.0000 0.0000 0.0000 0.0000 -10647.8594 1361.7028 0.0000 0.0000 1737.1824 -7548.9742 302.2787 -9286.1566 -7546.0124 299.7444 -461.4169 -377.5537 29732.2654 2.9004 2.9066
ENERGY: 1300000 0.0000 0.0000 0.0000 0.0000 -10531.7746 1348.5759 0.0000 0.0000 1705.4325 -7477.7663 296.7540 -9183.1987 -7475.2360 300.2574 -515.1982 -444.4674 30119.0261 2.7845 2.9187
ENERGY: 1500000 0.0000 0.0000 0.0000 0.0000 -10511.3259 1337.4236 0.0000 0.0000 1731.8362 -7442.0661 301.3484 -9173.9023 -7436.7726 300.4066 -550.1953 -509.3050 30144.0085 3.2486 3.2835
ENERGY: 1700000 0.0000 0.0000 0.0000 0.0000 -10713.0643 1494.8010 0.0000 0.0000 1669.4964 -7548.7670 290.5010 -9218.2634 -7545.4272 300.3838 405.4076 456.5318 30165.6107 2.7909 2.8372
ENERGY: 1900000 0.0000 0.0000 0.0000 0.0000 -10598.4263 1421.8558 0.0000 0.0000 1716.0451 -7460.5254 298.6007 -9176.5705 -7456.1215 300.9087 99.3032 225.8824 30013.2257 3.1148 3.0493
TCL: Exiting due to exit command.
