Info: SIMULATION PARAMETERS:
Info: TIMESTEP               2
Info: NUMBER OF STEPS        0
Info: STEPS PER CYCLE        10
Info: PERIODIC CELL BASIS 1  36.592 0 0
Info: PERIODIC CELL BASIS 2  0 34.696 0
Info: PERIODIC CELL BASIS 3  0 0 34.471
Info: PERIODIC CELL CENTER   0 0 0
Info: WRAPPING WATERS AROUND PERIODIC BOUNDARIES ON OUTPUT.
Info: WRAPPING ALL CLUSTERS AROUND PERIODIC BOUNDARIES ON OUTPUT.
Info: FIRST LDB TIMESTEP     50
Info: LAST LDB TIMESTEP     -1
Info: HOM BACKGROUND SCALING 1
Info: PME BACKGROUND SCALING 1
Info: MIN ATOMS PER PATCH    40
Info: EMPTY PATCH LOAD       40 ATOMS
Info: INITIAL TEMPERATURE    300
Info: CENTER OF MASS MOVING INITIALLY? NO
Info: DIELECTRIC             1
Info: EXCLUDE                SCALED ONE-FOUR
Info: 1-4 ELECTROSTATICS SCALED BY 0.833333
Info: MODIFIED 1-4 VDW PARAMETERS WILL BE USED
Info: DCD FILENAME           mobley_3259411_equil.dcd
Info: DCD FREQUENCY          100000
Info: DCD FIRST STEP         100000
Info: DCD FILE WILL CONTAIN UNIT CELL DATA
Info: XST FILENAME           mobley_3259411_equil.xst
Info: XST FREQUENCY          100000
Info: NO VELOCITY DCD OUTPUT
Info: NO FORCE DCD OUTPUT
Info: OUTPUT FILENAME        mobley_3259411_equil
Info: BINARY OUTPUT FILES WILL BE USED
Info: RESTART FILENAME       mobley_3259411_equil.restart
Info: RESTART FREQUENCY      100000
Info: BINARY RESTART FILES WILL BE USED
Info: CUTOFF                 9
Info: PAIRLIST DISTANCE      11
Info: PAIRLIST SHRINK RATE   0.01
Info: PAIRLIST GROW RATE     0.01
Info: PAIRLIST TRIGGER       0.3
Info: PAIRLISTS PER CYCLE    2
Info: PAIRLISTS ENABLED
Info: MARGIN                 8
Info: HYDROGEN GROUP CUTOFF  2.5
Info: PATCH DIMENSION        21.5
Info: ENERGY OUTPUT STEPS    100000
Info: ENERGY EVALUATION STEPS    100000
Info: OUTPUT ENERGY PRECISION 4
Info: CROSSTERM ENERGY INCLUDED IN DIHEDRAL
Info: TIMING OUTPUT STEPS    1000000
Info: PRESSURE OUTPUT STEPS  100000
Info: FIXED ATOMS ACTIVE
Info: LANGEVIN DYNAMICS ACTIVE
Info: LANGEVIN TEMPERATURE   30
Info: LANGEVIN USING BBK INTEGRATOR
Info: LANGEVIN DAMPING COEFFICIENT IS 1 INVERSE PS
Info: LANGEVIN DYNAMICS APPLIED TO HYDROGENS
Info: LANGEVIN PISTON PRESSURE CONTROL ACTIVE
Info:        TARGET PRESSURE IS 1.01325 BAR
Info:     OSCILLATION PERIOD IS 50 FS
Info:             DECAY TIME IS 25 FS
Info:     PISTON TEMPERATURE IS 300 K
Info:       PRESSURE CONTROL IS GROUP-BASED
Info:    INITIAL STRAIN RATE IS 0 0 0
Info:       CELL FLUCTUATION IS ISOTROPIC
Info: PARTICLE MESH EWALD (PME) ACTIVE
Info: PME TOLERANCE               1e-06
Info: PME EWALD COEFFICIENT       0.348832
Info: PME INTERPOLATION ORDER     4
Info: PME GRID DIMENSIONS         40 36 36
Info: PME MAXIMUM GRID SPACING    1
Info: FULL ELECTROSTATIC EVALUATION FREQUENCY      2
Info: USING VERLET I (r-RESPA) MTS SCHEME.
Info: C1 SPLITTING OF LONG RANGE ELECTROSTATICS
Info: PLACING ATOMS IN PATCHES BY HYDROGEN GROUPS
Info: RIGID BONDS TO HYDROGEN : ALL
Info:         ERROR TOLERANCE : 1e-08
Info:          MAX ITERATIONS : 100
Info: RIGID WATER USING SETTLE ALGORITHM
Info: RANDOM NUMBER SEED     1744764657
Info: USE HYDROGEN BONDS?    NO
Info: Using AMBER format force field!
Info: AMBER PARM FILE        mobley_3259411.prmtop
Info: COORDINATE PDB         mobley_3259411.pdb
Info: Exclusions will be read from PARM file!
Info: SCNB (VDW SCALING)     2
Info: USING ARITHMETIC MEAN TO COMBINE L-J SIGMA PARAMETERS
Info: BINARY COORDINATES     mobley_3259411_min.coor
Info: SUMMARY OF PARAMETERS:
Info: 6 BONDS
Info: 6 ANGLES
Info:   6 HARMONIC
Info:   0 COSINE-BASED
Info: 7 DIHEDRAL
Info: 0 IMPROPER
Info: 0 CROSSTERM
Info: 0 VDW
Info: 15 VDW_PAIRS
Info: 0 NBTHOLE_PAIRS
Info: STRUCTURE SUMMARY:
Info: 2966 ATOMS
Info: 2965 BONDS
Info: 21 ANGLES
Info: 39 DIHEDRALS
Info: 0 IMPROPERS
Info: 0 CROSSTERMS
Info: 3013 EXCLUSIONS
Info: 14 FIXED ATOMS
Info: 2960 RIGID BONDS
Info: 8 RIGID BONDS BETWEEN FIXED ATOMS
Info: 5904 DEGREES OF FREEDOM
Info: 990 HYDROGEN GROUPS
Info: 3 ATOMS IN LARGEST HYDROGEN GROUP
Info: 990 MIGRATION GROUPS
Info: 3 ATOMS IN LARGEST MIGRATION GROUP
Info: 6 HYDROGEN GROUPS WITH ALL ATOMS FIXED
Info: TOTAL MASS = 17819.8 amu
Info: TOTAL CHARGE = 9.99272e-05 e
Info: MASS DENSITY = 0.676151 g/cm^3
Info: ATOM DENSITY = 0.0677722 atoms/A^3
Info: ADDED 0 IMPLICIT EXCLUSIONS
Info: NONBONDED TABLE R-SQUARED SPACING: 0.0625
Info: NONBONDED TABLE SIZE: 705 POINTS
Info: REMOVING COM VELOCITY 0.00674968 -0.0694153 0.0577051
TCL: Running for 100000 steps
ETITLE: TS BOND ANGLE DIHED IMPRP ELECT VDW BOUNDARY MISC KINETIC TOTAL TEMP POTENTIAL TOTAL3 TEMPAVG PRESSURE GPRESSURE VOLUME PRESSAVG GPRESSAVG
ENERGY: 0 0.0000 0.0000 0.0000 0.0000 -13815.3170 2400.9636 0.0000 0.0000 1770.0550 -9644.2984 301.7386 -11414.3534 -9643.9685 301.7386 332.5596 370.3920 43764.2448 332.5596 370.3920
ENERGY: 100000 0.0000 0.0000 0.0000 0.0000 -14240.4727 2399.8057 0.0000 0.0000 173.3987 -11667.2683 29.5590 -11840.6670 -11667.0340 30.8121 -888.1745 -830.3607 30618.7446 4.2556 4.3035
TCL: Running 100000 steps at 60 kelvin.
TCL: Setting parameter langevinTemp to 60
TCL: Running for 100000 steps
ETITLE: TS BOND ANGLE DIHED IMPRP ELECT VDW BOUNDARY MISC KINETIC TOTAL TEMP POTENTIAL TOTAL3 TEMPAVG PRESSURE GPRESSURE VOLUME PRESSAVG GPRESSAVG
ENERGY: 100000 0.0000 0.0000 0.0000 0.0000 -14240.4727 2399.8057 0.0000 0.0000 173.3068 -11667.3601 29.5434 -11840.6670 -11666.9258 29.5434 -883.1925 -830.4814 30618.7446 -883.1925 -830.4814
ENERGY: 200000 0.0000 0.0000 0.0000 0.0000 -14363.5307 2569.8802 0.0000 0.0000 347.4096 -11446.2408 59.2224 -11793.6505 -11444.9789 59.9621 678.1733 735.0966 29840.7496 3.3666 3.2878
TCL: Running 100000 steps at 90 kelvin.
TCL: Setting parameter langevinTemp to 90
TCL: Running for 100000 steps
ETITLE: TS BOND ANGLE DIHED IMPRP ELECT VDW BOUNDARY MISC KINETIC TOTAL TEMP POTENTIAL TOTAL3 TEMPAVG PRESSURE GPRESSURE VOLUME PRESSAVG GPRESSAVG
ENERGY: 200000 0.0000 0.0000 0.0000 0.0000 -14363.5307 2569.8802 0.0000 0.0000 347.2292 -11446.4213 59.1916 -11793.6505 -11445.7396 59.1916 679.7751 735.3992 29840.7496 679.7751 735.3992
ENERGY: 300000 0.0000 0.0000 0.0000 0.0000 -14034.1759 2331.3926 0.0000 0.0000 527.6469 -11175.1363 89.9472 -11702.7832 -11173.4837 89.9184 -723.8892 -661.8932 29724.0967 4.0178 4.1790
TCL: Running 100000 steps at 120 kelvin.
TCL: Setting parameter langevinTemp to 120
TCL: Running for 100000 steps
ETITLE: TS BOND ANGLE DIHED IMPRP ELECT VDW BOUNDARY MISC KINETIC TOTAL TEMP POTENTIAL TOTAL3 TEMPAVG PRESSURE GPRESSURE VOLUME PRESSAVG GPRESSAVG
ENERGY: 300000 0.0000 0.0000 0.0000 0.0000 -14034.1759 2331.3926 0.0000 0.0000 527.3761 -11175.4072 89.9010 -11702.7832 -11174.4184 89.9010 -711.1106 -661.5934 29724.0967 -711.1106 -661.5934
ENERGY: 400000 0.0000 0.0000 0.0000 0.0000 -14008.7225 2397.4086 0.0000 0.0000 692.0429 -10919.2711 117.9715 -11611.3140 -10918.4584 119.8165 268.3515 343.9989 29266.3797 3.3648 3.2574
TCL: Running 100000 steps at 150 kelvin.
TCL: Setting parameter langevinTemp to 150
TCL: Running for 100000 steps
ETITLE: TS BOND ANGLE DIHED IMPRP ELECT VDW BOUNDARY MISC KINETIC TOTAL TEMP POTENTIAL TOTAL3 TEMPAVG PRESSURE GPRESSURE VOLUME PRESSAVG GPRESSAVG
ENERGY: 400000 0.0000 0.0000 0.0000 0.0000 -14008.7225 2397.4086 0.0000 0.0000 691.6924 -10919.6215 117.9117 -11611.3140 -10918.1315 117.9117 273.6637 343.2093 29266.3797 273.6637 343.2093
ENERGY: 500000 0.0000 0.0000 0.0000 0.0000 -13648.2551 2202.9340 0.0000 0.0000 882.0070 -10563.3140 150.3544 -11445.3211 -10559.2676 150.1674 -524.6469 -467.5837 29084.8594 3.2078 3.2178
TCL: Running 100000 steps at 180 kelvin.
TCL: Setting parameter langevinTemp to 180
TCL: Running for 100000 steps
ETITLE: TS BOND ANGLE DIHED IMPRP ELECT VDW BOUNDARY MISC KINETIC TOTAL TEMP POTENTIAL TOTAL3 TEMPAVG PRESSURE GPRESSURE VOLUME PRESSAVG GPRESSAVG
ENERGY: 500000 0.0000 0.0000 0.0000 0.0000 -13648.2551 2202.9340 0.0000 0.0000 881.5732 -10563.7478 150.2804 -11445.3211 -10562.2905 150.2804 -531.0188 -465.5247 29084.8594 -531.0188 -465.5247
ENERGY: 600000 0.0000 0.0000 0.0000 0.0000 -13168.3570 2040.2952 0.0000 0.0000 1075.0307 -10053.0310 183.2588 -11128.0617 -10050.1236 180.0155 -603.8688 -572.5038 29074.6720 2.6829 2.7101
TCL: Running 100000 steps at 210 kelvin.
TCL: Setting parameter langevinTemp to 210
TCL: Running for 100000 steps
ETITLE: TS BOND ANGLE DIHED IMPRP ELECT VDW BOUNDARY MISC KINETIC TOTAL TEMP POTENTIAL TOTAL3 TEMPAVG PRESSURE GPRESSURE VOLUME PRESSAVG GPRESSAVG
ENERGY: 600000 0.0000 0.0000 0.0000 0.0000 -13168.3570 2040.2952 0.0000 0.0000 1074.4973 -10053.5644 183.1679 -11128.0617 -10051.5811 183.1679 -625.3876 -572.2418 29074.6720 -625.3876 -572.2418
ENERGY: 700000 0.0000 0.0000 0.0000 0.0000 -12616.4695 1894.6503 0.0000 0.0000 1261.5672 -9460.2519 215.0574 -10721.8192 -9458.1645 209.7115 -415.2217 -338.8548 29071.6254 1.6676 1.7284
TCL: Running 100000 steps at 240 kelvin.
TCL: Setting parameter langevinTemp to 240
TCL: Running for 100000 steps
ETITLE: TS BOND ANGLE DIHED IMPRP ELECT VDW BOUNDARY MISC KINETIC TOTAL TEMP POTENTIAL TOTAL3 TEMPAVG PRESSURE GPRESSURE VOLUME PRESSAVG GPRESSAVG
ENERGY: 700000 0.0000 0.0000 0.0000 0.0000 -12616.4695 1894.6503 0.0000 0.0000 1260.9252 -9460.8940 214.9480 -10721.8192 -9458.4190 214.9480 -408.4785 -338.8147 29071.6254 -408.4785 -338.8147
ENERGY: 800000 0.0000 0.0000 0.0000 0.0000 -12023.3862 1779.0179 0.0000 0.0000 1442.3480 -8802.0202 245.8748 -10244.3683 -8798.4071 239.7390 422.7264 469.4950 29249.2281 2.1901 1.9833
TCL: Running 100000 steps at 270 kelvin.
TCL: Setting parameter langevinTemp to 270
TCL: Running for 100000 steps
ETITLE: TS BOND ANGLE DIHED IMPRP ELECT VDW BOUNDARY MISC KINETIC TOTAL TEMP POTENTIAL TOTAL3 TEMPAVG PRESSURE GPRESSURE VOLUME PRESSAVG GPRESSAVG
ENERGY: 800000 0.0000 0.0000 0.0000 0.0000 -12023.3862 1779.0179 0.0000 0.0000 1441.6760 -8802.6923 245.7603 -10244.3683 -8799.8765 245.7603 384.6817 470.9935 29249.2281 384.6817 470.9935
ENERGY: 900000 0.0000 0.0000 0.0000 0.0000 -11382.1629 1594.9009 0.0000 0.0000 1542.8179 -8244.4442 263.0018 -9787.2621 -8240.2635 270.5629 221.5778 298.7554 29831.4544 4.8496 4.6924
TCL: Running 1000000 steps at 300 kelvin.
TCL: Setting parameter langevinTemp to 300
TCL: Running for 1000000 steps
ETITLE: TS BOND ANGLE DIHED IMPRP ELECT VDW BOUNDARY MISC KINETIC TOTAL TEMP POTENTIAL TOTAL3 TEMPAVG PRESSURE GPRESSURE VOLUME PRESSAVG GPRESSAVG
ENERGY: 900000 0.0000 0.0000 0.0000 0.0000 -11382.1629 1594.9009 0.0000 0.0000 1542.0225 -8245.2395 262.8662 -9787.2621 -8243.0930 262.8662 206.2496 300.6318 29831.4544 206.2496 300.6318
ENERGY: 1100000 0.0000 0.0000 0.0000 0.0000 -10883.2782 1451.0750 0.0000 0.0000 1756.7087 -7675.4945 299.4634 -9432.2031 -7670.8759 299.7960 -73.1898 14.0007 30521.6596 2.3570 2.0996
ENERGY: 1300000 0.0000 0.0000 0.0000 0.0000 -10943.0772 1532.9772 0.0000 0.0000 1728.2146 -7681.8854 294.6061 -9410.1000 -7676.0617 300.4311 891.1146 976.1962 30143.6766 3.6400 3.4158
ENERGY: 1500000 0.0000 0.0000 0.0000 0.0000 -10824.7719 1396.8269 0.0000 0.0000 1733.7673 -7694.1777 295.5526 -9427.9450 -7690.2148 299.8733 -719.9027 -677.1353 31136.2528 3.9112 3.9525
ENERGY: 1700000 0.0000 0.0000 0.0000 0.0000 -10923.0898 1502.4726 0.0000 0.0000 1721.8737 -7698.7436 293.5252 -9420.6173 -7695.0127 300.0505 389.3613 467.6573 30422.2334 3.5045 3.6293
ENERGY: 1900000 0.0000 0.0000 0.0000 0.0000 -10984.1604 1571.3623 0.0000 0.0000 1733.1993 -7679.5988 295.4558 -9412.7981 -7677.7640 300.6411 969.5055 1026.0306 30356.3954 2.2741 2.3074
TCL: Exiting due to exit command.
