Info: SIMULATION PARAMETERS:
Info: TIMESTEP               2
Info: NUMBER OF STEPS        0
Info: STEPS PER CYCLE        10
Info: PERIODIC CELL BASIS 1  36.592 0 0
Info: PERIODIC CELL BASIS 2  0 35.411 0
Info: PERIODIC CELL BASIS 3  0 0 34.229
Info: PERIODIC CELL CENTER   0 0 0
Info: WRAPPING WATERS AROUND PERIODIC BOUNDARIES ON OUTPUT.
Info: WRAPPING ALL CLUSTERS AROUND PERIODIC BOUNDARIES ON OUTPUT.
Info: FIRST LDB TIMESTEP     50
Info: LAST LDB TIMESTEP     -1
Info: HOM BACKGROUND SCALING 1
Info: PME BACKGROUND SCALING 1
Info: MIN ATOMS PER PATCH    40
Info: EMPTY PATCH LOAD       40 ATOMS
Info: INITIAL TEMPERATURE    300
Info: CENTER OF MASS MOVING INITIALLY? NO
Info: DIELECTRIC             1
Info: EXCLUDE                SCALED ONE-FOUR
Info: 1-4 ELECTROSTATICS SCALED BY 0.833333
Info: MODIFIED 1-4 VDW PARAMETERS WILL BE USED
Info: DCD FILENAME           mobley_6854178_equil.dcd
Info: DCD FREQUENCY          100000
Info: DCD FIRST STEP         100000
Info: DCD FILE WILL CONTAIN UNIT CELL DATA
Info: XST FILENAME           mobley_6854178_equil.xst
Info: XST FREQUENCY          100000
Info: NO VELOCITY DCD OUTPUT
Info: NO FORCE DCD OUTPUT
Info: OUTPUT FILENAME        mobley_6854178_equil
Info: BINARY OUTPUT FILES WILL BE USED
Info: RESTART FILENAME       mobley_6854178_equil.restart
Info: RESTART FREQUENCY      100000
Info: BINARY RESTART FILES WILL BE USED
Info: CUTOFF                 9
Info: PAIRLIST DISTANCE      11
Info: PAIRLIST SHRINK RATE   0.01
Info: PAIRLIST GROW RATE     0.01
Info: PAIRLIST TRIGGER       0.3
Info: PAIRLISTS PER CYCLE    2
Info: PAIRLISTS ENABLED
Info: MARGIN                 8
Info: HYDROGEN GROUP CUTOFF  2.5
Info: PATCH DIMENSION        21.5
Info: ENERGY OUTPUT STEPS    100000
Info: ENERGY EVALUATION STEPS    100000
Info: OUTPUT ENERGY PRECISION 4
Info: CROSSTERM ENERGY INCLUDED IN DIHEDRAL
Info: TIMING OUTPUT STEPS    1000000
Info: PRESSURE OUTPUT STEPS  100000
Info: FIXED ATOMS ACTIVE
Info: LANGEVIN DYNAMICS ACTIVE
Info: LANGEVIN TEMPERATURE   30
Info: LANGEVIN USING BBK INTEGRATOR
Info: LANGEVIN DAMPING COEFFICIENT IS 1 INVERSE PS
Info: LANGEVIN DYNAMICS APPLIED TO HYDROGENS
Info: LANGEVIN PISTON PRESSURE CONTROL ACTIVE
Info:        TARGET PRESSURE IS 1.01325 BAR
Info:     OSCILLATION PERIOD IS 50 FS
Info:             DECAY TIME IS 25 FS
Info:     PISTON TEMPERATURE IS 300 K
Info:       PRESSURE CONTROL IS GROUP-BASED
Info:    INITIAL STRAIN RATE IS 0 0 0
Info:       CELL FLUCTUATION IS ISOTROPIC
Info: PARTICLE MESH EWALD (PME) ACTIVE
Info: PME TOLERANCE               1e-06
Info: PME EWALD COEFFICIENT       0.348832
Info: PME INTERPOLATION ORDER     4
Info: PME GRID DIMENSIONS         40 36 36
Info: PME MAXIMUM GRID SPACING    1
Info: FULL ELECTROSTATIC EVALUATION FREQUENCY      2
Info: USING VERLET I (r-RESPA) MTS SCHEME.
Info: C1 SPLITTING OF LONG RANGE ELECTROSTATICS
Info: PLACING ATOMS IN PATCHES BY HYDROGEN GROUPS
Info: RIGID BONDS TO HYDROGEN : ALL
Info:         ERROR TOLERANCE : 1e-08
Info:          MAX ITERATIONS : 100
Info: RIGID WATER USING SETTLE ALGORITHM
Info: RANDOM NUMBER SEED     1744764760
Info: USE HYDROGEN BONDS?    NO
Info: Using AMBER format force field!
Info: AMBER PARM FILE        mobley_6854178.prmtop
Info: COORDINATE PDB         mobley_6854178.pdb
Info: Exclusions will be read from PARM file!
Info: SCNB (VDW SCALING)     2
Info: USING ARITHMETIC MEAN TO COMBINE L-J SIGMA PARAMETERS
Info: BINARY COORDINATES     mobley_6854178_min.coor
Info: SUMMARY OF PARAMETERS:
Info: 9 BONDS
Info: 10 ANGLES
Info:   10 HARMONIC
Info:   0 COSINE-BASED
Info: 10 DIHEDRAL
Info: 0 IMPROPER
Info: 0 CROSSTERM
Info: 0 VDW
Info: 45 VDW_PAIRS
Info: 0 NBTHOLE_PAIRS
Info: STRUCTURE SUMMARY:
Info: 2957 ATOMS
Info: 2956 BONDS
Info: 22 ANGLES
Info: 33 DIHEDRALS
Info: 0 IMPROPERS
Info: 0 CROSSTERMS
Info: 3001 EXCLUSIONS
Info: 14 FIXED ATOMS
Info: 2951 RIGID BONDS
Info: 8 RIGID BONDS BETWEEN FIXED ATOMS
Info: 5886 DEGREES OF FREEDOM
Info: 987 HYDROGEN GROUPS
Info: 4 ATOMS IN LARGEST HYDROGEN GROUP
Info: 987 MIGRATION GROUPS
Info: 4 ATOMS IN LARGEST MIGRATION GROUP
Info: 6 HYDROGEN GROUPS WITH ALL ATOMS FIXED
Info: TOTAL MASS = 17761.8 amu
Info: TOTAL CHARGE = 7.45058e-08 e
Info: MASS DENSITY = 0.665009 g/cm^3
Info: ATOM DENSITY = 0.0666704 atoms/A^3
Info: ADDED 0 IMPLICIT EXCLUSIONS
Info: NONBONDED TABLE R-SQUARED SPACING: 0.0625
Info: NONBONDED TABLE SIZE: 705 POINTS
Info: REMOVING COM VELOCITY 0.0248567 0.0223176 0.148514
TCL: Running for 100000 steps
ETITLE: TS BOND ANGLE DIHED IMPRP ELECT VDW BOUNDARY MISC KINETIC TOTAL TEMP POTENTIAL TOTAL3 TEMPAVG PRESSURE GPRESSURE VOLUME PRESSAVG GPRESSAVG
ENERGY: 0 0.0000 0.0000 0.0000 0.0000 -13701.5563 2397.1934 0.0000 0.0000 1728.6398 -9575.7231 295.5797 -11304.3629 -9575.3676 295.5797 388.0928 423.3191 44352.5455 388.0928 423.3191
ENERGY: 100000 0.0000 0.0000 0.0000 0.0000 -14240.8744 2432.3439 0.0000 0.0000 175.7443 -11632.7863 30.0505 -11808.5305 -11632.1058 30.9933 -332.2749 -279.4917 29092.4638 3.1617 3.2104
TCL: Running 100000 steps at 60 kelvin.
TCL: Setting parameter langevinTemp to 60
TCL: Running for 100000 steps
ETITLE: TS BOND ANGLE DIHED IMPRP ELECT VDW BOUNDARY MISC KINETIC TOTAL TEMP POTENTIAL TOTAL3 TEMPAVG PRESSURE GPRESSURE VOLUME PRESSAVG GPRESSAVG
ENERGY: 100000 0.0000 0.0000 0.0000 0.0000 -14240.8744 2432.3439 0.0000 0.0000 175.6553 -11632.8752 30.0353 -11808.5305 -11632.5328 30.0353 -336.8919 -279.2753 29092.4638 -336.8919 -279.2753
ENERGY: 200000 0.0000 0.0000 0.0000 0.0000 -14070.5510 2334.4587 0.0000 0.0000 354.2516 -11381.8408 60.5734 -11736.0924 -11380.7343 59.9655 -879.8797 -825.1586 29258.8495 4.1445 4.0467
TCL: Running 100000 steps at 90 kelvin.
TCL: Setting parameter langevinTemp to 90
TCL: Running for 100000 steps
ETITLE: TS BOND ANGLE DIHED IMPRP ELECT VDW BOUNDARY MISC KINETIC TOTAL TEMP POTENTIAL TOTAL3 TEMPAVG PRESSURE GPRESSURE VOLUME PRESSAVG GPRESSAVG
ENERGY: 200000 0.0000 0.0000 0.0000 0.0000 -14070.5510 2334.4587 0.0000 0.0000 354.0702 -11382.0222 60.5424 -11736.0924 -11381.2534 60.5424 -873.8916 -825.3086 29258.8495 -873.8916 -825.3086
ENERGY: 300000 0.0000 0.0000 0.0000 0.0000 -14078.8445 2430.4430 0.0000 0.0000 526.5190 -11121.8825 90.0294 -11648.4015 -11121.4730 89.8130 492.0159 569.1030 28706.7407 3.9535 3.7988
TCL: Running 100000 steps at 120 kelvin.
TCL: Setting parameter langevinTemp to 120
TCL: Running for 100000 steps
ETITLE: TS BOND ANGLE DIHED IMPRP ELECT VDW BOUNDARY MISC KINETIC TOTAL TEMP POTENTIAL TOTAL3 TEMPAVG PRESSURE GPRESSURE VOLUME PRESSAVG GPRESSAVG
ENERGY: 300000 0.0000 0.0000 0.0000 0.0000 -14078.8445 2430.4430 0.0000 0.0000 526.2594 -11122.1421 89.9850 -11648.4015 -11121.1825 89.9850 498.0653 568.7851 28706.7407 498.0653 568.7851
ENERGY: 400000 0.0000 0.0000 0.0000 0.0000 -13801.9814 2311.8792 0.0000 0.0000 724.1120 -10765.9902 123.8157 -11490.1022 -10763.9793 119.8498 -134.9118 -41.1525 29125.7228 2.9576 2.8694
TCL: Running 100000 steps at 150 kelvin.
TCL: Setting parameter langevinTemp to 150
TCL: Running for 100000 steps
ETITLE: TS BOND ANGLE DIHED IMPRP ELECT VDW BOUNDARY MISC KINETIC TOTAL TEMP POTENTIAL TOTAL3 TEMPAVG PRESSURE GPRESSURE VOLUME PRESSAVG GPRESSAVG
ENERGY: 400000 0.0000 0.0000 0.0000 0.0000 -13801.9814 2311.8792 0.0000 0.0000 723.7575 -10766.3447 123.7551 -11490.1022 -10765.1034 123.7551 -102.3401 -39.7240 29125.7228 -102.3401 -39.7240
ENERGY: 500000 0.0000 0.0000 0.0000 0.0000 -13595.5928 2210.7375 0.0000 0.0000 873.9251 -10510.9302 149.4322 -11384.8552 -10509.4552 149.9287 -634.6975 -611.3126 29331.0601 4.2581 4.3172
TCL: Running 100000 steps at 180 kelvin.
TCL: Setting parameter langevinTemp to 180
TCL: Running for 100000 steps
ETITLE: TS BOND ANGLE DIHED IMPRP ELECT VDW BOUNDARY MISC KINETIC TOTAL TEMP POTENTIAL TOTAL3 TEMPAVG PRESSURE GPRESSURE VOLUME PRESSAVG GPRESSAVG
ENERGY: 500000 0.0000 0.0000 0.0000 0.0000 -13595.5928 2210.7375 0.0000 0.0000 873.4742 -10511.3811 149.3551 -11384.8552 -10509.7974 149.3551 -664.6740 -612.1665 29331.0601 -664.6740 -612.1665
ENERGY: 600000 0.0000 0.0000 0.0000 0.0000 -13338.9407 2236.3377 0.0000 0.0000 1042.6404 -10059.9626 178.2808 -11102.6030 -10056.9828 180.1965 589.6248 618.1378 29161.5939 2.9144 2.9852
TCL: Running 100000 steps at 210 kelvin.
TCL: Setting parameter langevinTemp to 210
TCL: Running for 100000 steps
ETITLE: TS BOND ANGLE DIHED IMPRP ELECT VDW BOUNDARY MISC KINETIC TOTAL TEMP POTENTIAL TOTAL3 TEMPAVG PRESSURE GPRESSURE VOLUME PRESSAVG GPRESSAVG
ENERGY: 600000 0.0000 0.0000 0.0000 0.0000 -13338.9407 2236.3377 0.0000 0.0000 1042.1052 -10060.4978 178.1893 -11102.6030 -10058.5190 178.1893 560.9485 617.1469 29161.5939 560.9485 617.1469
ENERGY: 700000 0.0000 0.0000 0.0000 0.0000 -12427.1917 1845.0520 0.0000 0.0000 1243.3086 -9338.8311 212.5930 -10582.1397 -9335.7043 209.7816 -276.5499 -230.1405 28720.4226 3.1903 3.1278
TCL: Running 100000 steps at 240 kelvin.
TCL: Setting parameter langevinTemp to 240
TCL: Running for 100000 steps
ETITLE: TS BOND ANGLE DIHED IMPRP ELECT VDW BOUNDARY MISC KINETIC TOTAL TEMP POTENTIAL TOTAL3 TEMPAVG PRESSURE GPRESSURE VOLUME PRESSAVG GPRESSAVG
ENERGY: 700000 0.0000 0.0000 0.0000 0.0000 -12427.1917 1845.0520 0.0000 0.0000 1242.6905 -9339.4492 212.4874 -10582.1397 -9337.3696 212.4874 -309.9690 -229.4185 28720.4226 -309.9690 -229.4185
ENERGY: 800000 0.0000 0.0000 0.0000 0.0000 -11936.1223 1767.7082 0.0000 0.0000 1453.6466 -8714.7675 248.5587 -10168.4141 -8713.3509 240.1919 417.6359 464.7386 29107.4226 2.1761 2.1190
TCL: Running 100000 steps at 270 kelvin.
TCL: Setting parameter langevinTemp to 270
TCL: Running for 100000 steps
ETITLE: TS BOND ANGLE DIHED IMPRP ELECT VDW BOUNDARY MISC KINETIC TOTAL TEMP POTENTIAL TOTAL3 TEMPAVG PRESSURE GPRESSURE VOLUME PRESSAVG GPRESSAVG
ENERGY: 800000 0.0000 0.0000 0.0000 0.0000 -11936.1223 1767.7082 0.0000 0.0000 1452.9362 -8715.4779 248.4372 -10168.4141 -8713.3045 248.4372 380.2364 461.3556 29107.4226 380.2364 461.3556
ENERGY: 900000 0.0000 0.0000 0.0000 0.0000 -11309.9117 1486.1133 0.0000 0.0000 1589.0500 -8234.7484 271.7113 -9823.7984 -8231.5567 269.2099 -1025.3749 -898.8646 29750.9567 2.7052 2.6184
TCL: Running 1000000 steps at 300 kelvin.
TCL: Setting parameter langevinTemp to 300
TCL: Running for 1000000 steps
ETITLE: TS BOND ANGLE DIHED IMPRP ELECT VDW BOUNDARY MISC KINETIC TOTAL TEMP POTENTIAL TOTAL3 TEMPAVG PRESSURE GPRESSURE VOLUME PRESSAVG GPRESSAVG
ENERGY: 900000 0.0000 0.0000 0.0000 0.0000 -11309.9117 1486.1133 0.0000 0.0000 1588.2571 -8235.5413 271.5757 -9823.7984 -8233.0505 271.5757 -983.9737 -899.3722 29750.9567 -983.9737 -899.3722
ENERGY: 1100000 0.0000 0.0000 0.0000 0.0000 -10876.9347 1505.7311 0.0000 0.0000 1766.6048 -7604.5988 302.0713 -9371.2036 -7599.5762 299.9782 523.2409 626.5843 29998.0045 3.6410 3.4873
ENERGY: 1300000 0.0000 0.0000 0.0000 0.0000 -10711.4700 1422.1489 0.0000 0.0000 1729.5688 -7559.7523 295.7386 -9289.3211 -7557.4233 299.9132 -84.3528 15.5961 30520.3633 1.4744 1.5853
ENERGY: 1500000 0.0000 0.0000 0.0000 0.0000 -10688.8624 1407.9560 0.0000 0.0000 1819.1786 -7461.7278 311.0609 -9280.9064 -7459.9919 299.3217 -148.2820 -45.5198 30719.1839 3.6893 3.7674
ENERGY: 1700000 0.0000 0.0000 0.0000 0.0000 -10970.3696 1567.5407 0.0000 0.0000 1740.0676 -7662.7613 297.5338 -9402.8289 -7661.3381 300.0257 969.1818 1036.9685 30064.3156 2.6530 2.4999
ENERGY: 1900000 0.0000 0.0000 0.0000 0.0000 -10883.1033 1469.1663 0.0000 0.0000 1778.9992 -7634.9379 304.1907 -9413.9371 -7631.3347 299.8388 -50.5380 -31.9654 30732.7305 3.7437 3.7711
TCL: Exiting due to exit command.
