Info: SIMULATION PARAMETERS:
Info: TIMESTEP               2
Info: NUMBER OF STEPS        0
Info: STEPS PER CYCLE        10
Info: PERIODIC CELL BASIS 1  37.435 0 0
Info: PERIODIC CELL BASIS 2  0 36.451 0
Info: PERIODIC CELL BASIS 3  0 0 33.152
Info: PERIODIC CELL CENTER   0 0 0
Info: WRAPPING WATERS AROUND PERIODIC BOUNDARIES ON OUTPUT.
Info: WRAPPING ALL CLUSTERS AROUND PERIODIC BOUNDARIES ON OUTPUT.
Info: FIRST LDB TIMESTEP     50
Info: LAST LDB TIMESTEP     -1
Info: HOM BACKGROUND SCALING 1
Info: PME BACKGROUND SCALING 1
Info: MIN ATOMS PER PATCH    40
Info: EMPTY PATCH LOAD       40 ATOMS
Info: INITIAL TEMPERATURE    300
Info: CENTER OF MASS MOVING INITIALLY? NO
Info: DIELECTRIC             1
Info: EXCLUDE                SCALED ONE-FOUR
Info: 1-4 ELECTROSTATICS SCALED BY 0.833333
Info: MODIFIED 1-4 VDW PARAMETERS WILL BE USED
Info: DCD FILENAME           mobley_5263791_equil.dcd
Info: DCD FREQUENCY          100000
Info: DCD FIRST STEP         100000
Info: DCD FILE WILL CONTAIN UNIT CELL DATA
Info: XST FILENAME           mobley_5263791_equil.xst
Info: XST FREQUENCY          100000
Info: NO VELOCITY DCD OUTPUT
Info: NO FORCE DCD OUTPUT
Info: OUTPUT FILENAME        mobley_5263791_equil
Info: BINARY OUTPUT FILES WILL BE USED
Info: RESTART FILENAME       mobley_5263791_equil.restart
Info: RESTART FREQUENCY      100000
Info: BINARY RESTART FILES WILL BE USED
Info: CUTOFF                 9
Info: PAIRLIST DISTANCE      11
Info: PAIRLIST SHRINK RATE   0.01
Info: PAIRLIST GROW RATE     0.01
Info: PAIRLIST TRIGGER       0.3
Info: PAIRLISTS PER CYCLE    2
Info: PAIRLISTS ENABLED
Info: MARGIN                 8
Info: HYDROGEN GROUP CUTOFF  2.5
Info: PATCH DIMENSION        21.5
Info: ENERGY OUTPUT STEPS    100000
Info: ENERGY EVALUATION STEPS    100000
Info: OUTPUT ENERGY PRECISION 4
Info: CROSSTERM ENERGY INCLUDED IN DIHEDRAL
Info: TIMING OUTPUT STEPS    1000000
Info: PRESSURE OUTPUT STEPS  100000
Info: FIXED ATOMS ACTIVE
Info: LANGEVIN DYNAMICS ACTIVE
Info: LANGEVIN TEMPERATURE   30
Info: LANGEVIN USING BBK INTEGRATOR
Info: LANGEVIN DAMPING COEFFICIENT IS 1 INVERSE PS
Info: LANGEVIN DYNAMICS APPLIED TO HYDROGENS
Info: LANGEVIN PISTON PRESSURE CONTROL ACTIVE
Info:        TARGET PRESSURE IS 1.01325 BAR
Info:     OSCILLATION PERIOD IS 50 FS
Info:             DECAY TIME IS 25 FS
Info:     PISTON TEMPERATURE IS 300 K
Info:       PRESSURE CONTROL IS GROUP-BASED
Info:    INITIAL STRAIN RATE IS 0 0 0
Info:       CELL FLUCTUATION IS ISOTROPIC
Info: PARTICLE MESH EWALD (PME) ACTIVE
Info: PME TOLERANCE               1e-06
Info: PME EWALD COEFFICIENT       0.348832
Info: PME INTERPOLATION ORDER     4
Info: PME GRID DIMENSIONS         40 40 36
Info: PME MAXIMUM GRID SPACING    1
Info: FULL ELECTROSTATIC EVALUATION FREQUENCY      2
Info: USING VERLET I (r-RESPA) MTS SCHEME.
Info: C1 SPLITTING OF LONG RANGE ELECTROSTATICS
Info: PLACING ATOMS IN PATCHES BY HYDROGEN GROUPS
Info: RIGID BONDS TO HYDROGEN : ALL
Info:         ERROR TOLERANCE : 1e-08
Info:          MAX ITERATIONS : 100
Info: RIGID WATER USING SETTLE ALGORITHM
Info: RANDOM NUMBER SEED     1744762754
Info: USE HYDROGEN BONDS?    NO
Info: Using AMBER format force field!
Info: AMBER PARM FILE        mobley_5263791.prmtop
Info: COORDINATE PDB         mobley_5263791.pdb
Info: Exclusions will be read from PARM file!
Info: SCNB (VDW SCALING)     2
Info: USING ARITHMETIC MEAN TO COMBINE L-J SIGMA PARAMETERS
Info: BINARY COORDINATES     mobley_5263791_min.coor
Info: SUMMARY OF PARAMETERS:
Info: 7 BONDS
Info: 7 ANGLES
Info: 5 DIHEDRAL
Info: 0 IMPROPER
Info: 0 CROSSTERM
Info: 0 VDW
Info: 21 VDW_PAIRS
Info: 0 NBTHOLE_PAIRS
Info: STRUCTURE SUMMARY:
Info: 2994 ATOMS
Info: 2995 BONDS
Info: 42 ANGLES
Info: 69 DIHEDRALS
Info: 0 IMPROPERS
Info: 0 CROSSTERMS
Info: 3090 EXCLUSIONS
Info: 24 FIXED ATOMS
Info: 2982 RIGID BONDS
Info: 12 RIGID BONDS BETWEEN FIXED ATOMS
Info: 5940 DEGREES OF FREEDOM
Info: 1002 HYDROGEN GROUPS
Info: 4 ATOMS IN LARGEST HYDROGEN GROUP
Info: 1002 MIGRATION GROUPS
Info: 4 ATOMS IN LARGEST MIGRATION GROUP
Info: 12 HYDROGEN GROUPS WITH ALL ATOMS FIXED
Info: TOTAL MASS = 17992.1 amu
Info: TOTAL CHARGE = 9.99849e-05 e
Info: MASS DENSITY = 0.660455 g/cm^3
Info: ATOM DENSITY = 0.0661843 atoms/A^3
Info: ADDED 0 IMPLICIT EXCLUSIONS
Info: NONBONDED TABLE R-SQUARED SPACING: 0.0625
Info: NONBONDED TABLE SIZE: 705 POINTS
Info: REMOVING COM VELOCITY -0.101355 -0.0240797 -0.132807
TCL: Running for 100000 steps
ETITLE: TS BOND ANGLE DIHED IMPRP ELECT VDW BOUNDARY MISC KINETIC TOTAL TEMP POTENTIAL TOTAL3 TEMPAVG PRESSURE GPRESSURE VOLUME PRESSAVG GPRESSAVG
ENERGY: 0 0.0000 0.0000 0.0000 0.0000 -13816.5158 2423.4611 0.0000 0.0000 1756.6064 -9636.4483 297.6312 -11393.0547 -9636.1311 297.6312 310.5978 345.9137 45237.3357 310.5978 345.9137
ENERGY: 100000 0.0000 0.0000 0.0000 0.0000 -14243.7009 2430.4531 0.0000 0.0000 170.7621 -11642.4858 28.9331 -11813.2478 -11642.1445 30.9211 -597.3406 -525.1556 30427.6223 3.0331 3.0544
TCL: Running 100000 steps at 60 kelvin.
TCL: Setting parameter langevinTemp to 60
TCL: Running for 100000 steps
ETITLE: TS BOND ANGLE DIHED IMPRP ELECT VDW BOUNDARY MISC KINETIC TOTAL TEMP POTENTIAL TOTAL3 TEMPAVG PRESSURE GPRESSURE VOLUME PRESSAVG GPRESSAVG
ENERGY: 100000 0.0000 0.0000 0.0000 0.0000 -14243.7009 2430.4531 0.0000 0.0000 170.6751 -11642.5727 28.9184 -11813.2478 -11642.1455 28.9184 -589.9888 -525.2678 30427.6223 -589.9888 -525.2678
ENERGY: 200000 0.0000 0.0000 0.0000 0.0000 -14347.5627 2554.4100 0.0000 0.0000 346.0921 -11447.0606 58.6402 -11793.1528 -11446.0509 59.9069 824.7887 887.2837 29294.6869 3.7513 3.7735
TCL: Running 100000 steps at 90 kelvin.
TCL: Setting parameter langevinTemp to 90
TCL: Running for 100000 steps
ETITLE: TS BOND ANGLE DIHED IMPRP ELECT VDW BOUNDARY MISC KINETIC TOTAL TEMP POTENTIAL TOTAL3 TEMPAVG PRESSURE GPRESSURE VOLUME PRESSAVG GPRESSAVG
ENERGY: 200000 0.0000 0.0000 0.0000 0.0000 -14347.5627 2554.4100 0.0000 0.0000 345.9133 -11447.2395 58.6099 -11793.1528 -11446.6403 58.6099 831.9293 887.1237 29294.6869 831.9293 887.1237
ENERGY: 300000 0.0000 0.0000 0.0000 0.0000 -13959.9542 2263.1218 0.0000 0.0000 533.9098 -11162.9225 90.4632 -11696.8323 -11161.9568 90.0386 -1257.0540 -1243.4972 29747.2181 3.9670 4.0526
TCL: Running 100000 steps at 120 kelvin.
TCL: Setting parameter langevinTemp to 120
TCL: Running for 100000 steps
ETITLE: TS BOND ANGLE DIHED IMPRP ELECT VDW BOUNDARY MISC KINETIC TOTAL TEMP POTENTIAL TOTAL3 TEMPAVG PRESSURE GPRESSURE VOLUME PRESSAVG GPRESSAVG
ENERGY: 300000 0.0000 0.0000 0.0000 0.0000 -13959.9542 2263.1218 0.0000 0.0000 533.6381 -11163.1942 90.4171 -11696.8323 -11161.9307 90.4171 -1302.1820 -1243.1888 29747.2181 -1302.1820 -1243.1888
ENERGY: 400000 0.0000 0.0000 0.0000 0.0000 -13902.8376 2343.7050 0.0000 0.0000 733.5607 -10825.5719 124.2911 -11559.1326 -10824.2648 120.0034 -22.3606 41.8458 29476.4058 5.1904 5.0448
TCL: Running 100000 steps at 150 kelvin.
TCL: Setting parameter langevinTemp to 150
TCL: Running for 100000 steps
ETITLE: TS BOND ANGLE DIHED IMPRP ELECT VDW BOUNDARY MISC KINETIC TOTAL TEMP POTENTIAL TOTAL3 TEMPAVG PRESSURE GPRESSURE VOLUME PRESSAVG GPRESSAVG
ENERGY: 400000 0.0000 0.0000 0.0000 0.0000 -13902.8376 2343.7050 0.0000 0.0000 733.1980 -10825.9346 124.2296 -11559.1326 -10824.6473 124.2296 -18.0662 41.7667 29476.4058 -18.0662 41.7667
ENERGY: 500000 0.0000 0.0000 0.0000 0.0000 -13655.4439 2262.2844 0.0000 0.0000 902.4944 -10490.6650 152.9144 -11393.1594 -10487.7375 150.2273 -126.0112 -64.7965 29548.5415 3.5662 3.5071
TCL: Running 100000 steps at 180 kelvin.
TCL: Setting parameter langevinTemp to 180
TCL: Running for 100000 steps
ETITLE: TS BOND ANGLE DIHED IMPRP ELECT VDW BOUNDARY MISC KINETIC TOTAL TEMP POTENTIAL TOTAL3 TEMPAVG PRESSURE GPRESSURE VOLUME PRESSAVG GPRESSAVG
ENERGY: 500000 0.0000 0.0000 0.0000 0.0000 -13655.4439 2262.2844 0.0000 0.0000 902.0555 -10491.1039 152.8401 -11393.1594 -10488.9363 152.8401 -122.2374 -64.0257 29548.5415 -122.2374 -64.0257
ENERGY: 600000 0.0000 0.0000 0.0000 0.0000 -13278.4591 2116.2543 0.0000 0.0000 1079.4941 -10082.7107 182.9044 -11162.2048 -10079.0983 180.2068 -473.6923 -375.4177 29553.0580 4.4726 4.5441
TCL: Running 100000 steps at 210 kelvin.
TCL: Setting parameter langevinTemp to 210
TCL: Running for 100000 steps
ETITLE: TS BOND ANGLE DIHED IMPRP ELECT VDW BOUNDARY MISC KINETIC TOTAL TEMP POTENTIAL TOTAL3 TEMPAVG PRESSURE GPRESSURE VOLUME PRESSAVG GPRESSAVG
ENERGY: 600000 0.0000 0.0000 0.0000 0.0000 -13278.4591 2116.2543 0.0000 0.0000 1078.9493 -10083.2555 182.8121 -11162.2048 -10080.8643 182.8121 -435.8654 -375.8397 29553.0580 -435.8654 -375.8397
ENERGY: 700000 0.0000 0.0000 0.0000 0.0000 -12557.6466 1929.2159 0.0000 0.0000 1283.0683 -9345.3623 217.3971 -10628.4307 -9342.5359 209.5145 309.7631 366.8114 29223.7834 3.2778 3.3653
TCL: Running 100000 steps at 240 kelvin.
TCL: Setting parameter langevinTemp to 240
TCL: Running for 100000 steps
ETITLE: TS BOND ANGLE DIHED IMPRP ELECT VDW BOUNDARY MISC KINETIC TOTAL TEMP POTENTIAL TOTAL3 TEMPAVG PRESSURE GPRESSURE VOLUME PRESSAVG GPRESSAVG
ENERGY: 700000 0.0000 0.0000 0.0000 0.0000 -12557.6466 1929.2159 0.0000 0.0000 1282.4503 -9345.9804 217.2924 -10628.4307 -9343.9647 217.2924 284.9709 366.4579 29223.7834 284.9709 366.4579
ENERGY: 800000 0.0000 0.0000 0.0000 0.0000 -12023.6570 1779.1694 0.0000 0.0000 1424.0432 -8820.4444 241.2832 -10244.4876 -8818.7622 240.3383 188.3023 301.2358 29663.4457 4.5829 4.5595
TCL: Running 100000 steps at 270 kelvin.
TCL: Setting parameter langevinTemp to 270
TCL: Running for 100000 steps
ETITLE: TS BOND ANGLE DIHED IMPRP ELECT VDW BOUNDARY MISC KINETIC TOTAL TEMP POTENTIAL TOTAL3 TEMPAVG PRESSURE GPRESSURE VOLUME PRESSAVG GPRESSAVG
ENERGY: 800000 0.0000 0.0000 0.0000 0.0000 -12023.6570 1779.1694 0.0000 0.0000 1423.3488 -8821.1388 241.1655 -10244.4876 -8819.1157 241.1655 201.2077 301.0520 29663.4457 201.2077 301.0520
ENERGY: 900000 0.0000 0.0000 0.0000 0.0000 -11512.2573 1697.6804 0.0000 0.0000 1578.6449 -8235.9320 267.4782 -9814.5769 -8231.7542 270.4627 911.3590 1044.8001 29782.9888 4.3829 4.1202
TCL: Running 1000000 steps at 300 kelvin.
TCL: Setting parameter langevinTemp to 300
TCL: Running for 1000000 steps
ETITLE: TS BOND ANGLE DIHED IMPRP ELECT VDW BOUNDARY MISC KINETIC TOTAL TEMP POTENTIAL TOTAL3 TEMPAVG PRESSURE GPRESSURE VOLUME PRESSAVG GPRESSAVG
ENERGY: 900000 0.0000 0.0000 0.0000 0.0000 -11512.2573 1697.6804 0.0000 0.0000 1577.8570 -8236.7199 267.3447 -9814.5769 -8234.5703 267.3447 962.9142 1045.6353 29782.9888 962.9142 1045.6353
ENERGY: 1100000 0.0000 0.0000 0.0000 0.0000 -10846.5278 1456.5465 0.0000 0.0000 1800.8221 -7589.1591 305.1229 -9389.9812 -7586.5035 300.3113 130.2577 188.4185 30871.9985 2.7916 2.8568
ENERGY: 1300000 0.0000 0.0000 0.0000 0.0000 -10856.3666 1476.5287 0.0000 0.0000 1757.5529 -7622.2850 297.7915 -9379.8379 -7619.0306 300.8886 273.1375 397.3727 30591.8152 4.0502 3.9591
ENERGY: 1500000 0.0000 0.0000 0.0000 0.0000 -10661.0870 1349.3585 0.0000 0.0000 1790.6649 -7521.0636 303.4019 -9311.7285 -7517.3130 299.6367 -705.7813 -640.0096 31131.0710 2.9596 3.0075
ENERGY: 1700000 0.0000 0.0000 0.0000 0.0000 -10747.6672 1398.2693 0.0000 0.0000 1751.8753 -7597.5225 296.8295 -9349.3978 -7592.4407 299.3098 -543.0089 -407.9882 31284.2287 3.1130 2.9873
ENERGY: 1900000 0.0000 0.0000 0.0000 0.0000 -10844.2761 1457.9510 0.0000 0.0000 1722.4191 -7663.9060 291.8386 -9386.3251 -7661.2842 300.0077 284.6481 349.1345 30492.6030 3.2676 3.2893
TCL: Exiting due to exit command.
