Info: SIMULATION PARAMETERS:
Info: TIMESTEP               2
Info: NUMBER OF STEPS        0
Info: STEPS PER CYCLE        10
Info: PERIODIC CELL BASIS 1  37.435 0 0
Info: PERIODIC CELL BASIS 2  0 34.26 0
Info: PERIODIC CELL BASIS 3  0 0 33.876
Info: PERIODIC CELL CENTER   0 0 0
Info: WRAPPING WATERS AROUND PERIODIC BOUNDARIES ON OUTPUT.
Info: WRAPPING ALL CLUSTERS AROUND PERIODIC BOUNDARIES ON OUTPUT.
Info: FIRST LDB TIMESTEP     50
Info: LAST LDB TIMESTEP     -1
Info: HOM BACKGROUND SCALING 1
Info: PME BACKGROUND SCALING 1
Info: MIN ATOMS PER PATCH    40
Info: EMPTY PATCH LOAD       40 ATOMS
Info: INITIAL TEMPERATURE    300
Info: CENTER OF MASS MOVING INITIALLY? NO
Info: DIELECTRIC             1
Info: EXCLUDE                SCALED ONE-FOUR
Info: 1-4 ELECTROSTATICS SCALED BY 0.833333
Info: MODIFIED 1-4 VDW PARAMETERS WILL BE USED
Info: DCD FILENAME           mobley_7497999_equil.dcd
Info: DCD FREQUENCY          100000
Info: DCD FIRST STEP         100000
Info: DCD FILE WILL CONTAIN UNIT CELL DATA
Info: XST FILENAME           mobley_7497999_equil.xst
Info: XST FREQUENCY          100000
Info: NO VELOCITY DCD OUTPUT
Info: NO FORCE DCD OUTPUT
Info: OUTPUT FILENAME        mobley_7497999_equil
Info: BINARY OUTPUT FILES WILL BE USED
Info: RESTART FILENAME       mobley_7497999_equil.restart
Info: RESTART FREQUENCY      100000
Info: BINARY RESTART FILES WILL BE USED
Info: CUTOFF                 9
Info: PAIRLIST DISTANCE      11
Info: PAIRLIST SHRINK RATE   0.01
Info: PAIRLIST GROW RATE     0.01
Info: PAIRLIST TRIGGER       0.3
Info: PAIRLISTS PER CYCLE    2
Info: PAIRLISTS ENABLED
Info: MARGIN                 8
Info: HYDROGEN GROUP CUTOFF  2.5
Info: PATCH DIMENSION        21.5
Info: ENERGY OUTPUT STEPS    100000
Info: ENERGY EVALUATION STEPS    100000
Info: OUTPUT ENERGY PRECISION 4
Info: CROSSTERM ENERGY INCLUDED IN DIHEDRAL
Info: TIMING OUTPUT STEPS    1000000
Info: PRESSURE OUTPUT STEPS  100000
Info: FIXED ATOMS ACTIVE
Info: LANGEVIN DYNAMICS ACTIVE
Info: LANGEVIN TEMPERATURE   30
Info: LANGEVIN USING BBK INTEGRATOR
Info: LANGEVIN DAMPING COEFFICIENT IS 1 INVERSE PS
Info: LANGEVIN DYNAMICS APPLIED TO HYDROGENS
Info: LANGEVIN PISTON PRESSURE CONTROL ACTIVE
Info:        TARGET PRESSURE IS 1.01325 BAR
Info:     OSCILLATION PERIOD IS 50 FS
Info:             DECAY TIME IS 25 FS
Info:     PISTON TEMPERATURE IS 300 K
Info:       PRESSURE CONTROL IS GROUP-BASED
Info:    INITIAL STRAIN RATE IS 0 0 0
Info:       CELL FLUCTUATION IS ISOTROPIC
Info: PARTICLE MESH EWALD (PME) ACTIVE
Info: PME TOLERANCE               1e-06
Info: PME EWALD COEFFICIENT       0.348832
Info: PME INTERPOLATION ORDER     4
Info: PME GRID DIMENSIONS         40 36 36
Info: PME MAXIMUM GRID SPACING    1
Info: FULL ELECTROSTATIC EVALUATION FREQUENCY      2
Info: USING VERLET I (r-RESPA) MTS SCHEME.
Info: C1 SPLITTING OF LONG RANGE ELECTROSTATICS
Info: PLACING ATOMS IN PATCHES BY HYDROGEN GROUPS
Info: RIGID BONDS TO HYDROGEN : ALL
Info:         ERROR TOLERANCE : 1e-08
Info:          MAX ITERATIONS : 100
Info: RIGID WATER USING SETTLE ALGORITHM
Info: RANDOM NUMBER SEED     1744721394
Info: USE HYDROGEN BONDS?    NO
Info: Using AMBER format force field!
Info: AMBER PARM FILE        mobley_7497999.prmtop
Info: COORDINATE PDB         mobley_7497999.pdb
Info: Exclusions will be read from PARM file!
Info: SCNB (VDW SCALING)     2
Info: USING ARITHMETIC MEAN TO COMBINE L-J SIGMA PARAMETERS
Info: BINARY COORDINATES     mobley_7497999_min.coor
Info: SUMMARY OF PARAMETERS:
Info: 8 BONDS
Info: 8 ANGLES
Info: 8 DIHEDRAL
Info: 0 IMPROPER
Info: 0 CROSSTERM
Info: 0 VDW
Info: 28 VDW_PAIRS
Info: 0 NBTHOLE_PAIRS
Info: STRUCTURE SUMMARY:
Info: 2921 ATOMS
Info: 2921 BONDS
Info: 27 ANGLES
Info: 47 DIHEDRALS
Info: 0 IMPROPERS
Info: 0 CROSSTERMS
Info: 2979 EXCLUSIONS
Info: 17 FIXED ATOMS
Info: 2912 RIGID BONDS
Info: 8 RIGID BONDS BETWEEN FIXED ATOMS
Info: 5808 DEGREES OF FREEDOM
Info: 977 HYDROGEN GROUPS
Info: 4 ATOMS IN LARGEST HYDROGEN GROUP
Info: 977 MIGRATION GROUPS
Info: 4 ATOMS IN LARGEST MIGRATION GROUP
Info: 9 HYDROGEN GROUPS WITH ALL ATOMS FIXED
Info: TOTAL MASS = 17559.6 amu
Info: TOTAL CHARGE = 9.99868e-05 e
Info: MASS DENSITY = 0.671147 g/cm^3
Info: ATOM DENSITY = 0.0672317 atoms/A^3
Info: ADDED 0 IMPLICIT EXCLUSIONS
Info: NONBONDED TABLE R-SQUARED SPACING: 0.0625
Info: NONBONDED TABLE SIZE: 705 POINTS
Info: REMOVING COM VELOCITY 0.288494 -0.0391462 -0.017223
TCL: Running for 100000 steps
ETITLE: TS BOND ANGLE DIHED IMPRP ELECT VDW BOUNDARY MISC KINETIC TOTAL TEMP POTENTIAL TOTAL3 TEMPAVG PRESSURE GPRESSURE VOLUME PRESSAVG GPRESSAVG
ENERGY: 0 0.0000 0.0000 0.0000 0.0000 -13566.8946 2380.5855 0.0000 0.0000 1730.4318 -9455.8773 299.8598 -11186.3091 -9455.5351 299.8598 334.8372 368.4878 43446.7525 334.8372 368.4878
ENERGY: 100000 0.0000 0.0000 0.0000 0.0000 -14106.3050 2416.3238 0.0000 0.0000 173.9679 -11516.0133 30.1462 -11689.9812 -11515.6668 30.9409 -339.1950 -277.3455 28271.8008 3.4177 3.2976
TCL: Running 100000 steps at 60 kelvin.
TCL: Setting parameter langevinTemp to 60
TCL: Running for 100000 steps
ETITLE: TS BOND ANGLE DIHED IMPRP ELECT VDW BOUNDARY MISC KINETIC TOTAL TEMP POTENTIAL TOTAL3 TEMPAVG PRESSURE GPRESSURE VOLUME PRESSAVG GPRESSAVG
ENERGY: 100000 0.0000 0.0000 0.0000 0.0000 -14106.3050 2416.3238 0.0000 0.0000 173.8821 -11516.0991 30.1314 -11689.9812 -11515.8091 30.1314 -335.9620 -277.3938 28271.8008 -335.9620 -277.3938
ENERGY: 200000 0.0000 0.0000 0.0000 0.0000 -14044.0661 2442.4882 0.0000 0.0000 352.0559 -11249.5221 61.0064 -11601.5780 -11249.3625 59.9384 268.4576 332.3322 28308.7305 4.1207 4.1010
TCL: Running 100000 steps at 90 kelvin.
TCL: Setting parameter langevinTemp to 90
TCL: Running for 100000 steps
ETITLE: TS BOND ANGLE DIHED IMPRP ELECT VDW BOUNDARY MISC KINETIC TOTAL TEMP POTENTIAL TOTAL3 TEMPAVG PRESSURE GPRESSURE VOLUME PRESSAVG GPRESSAVG
ENERGY: 200000 0.0000 0.0000 0.0000 0.0000 -14044.0661 2442.4882 0.0000 0.0000 351.8867 -11249.6912 60.9771 -11601.5780 -11248.9149 60.9771 281.5251 331.5485 28308.7305 281.5251 331.5485
ENERGY: 300000 0.0000 0.0000 0.0000 0.0000 -13954.2037 2432.9226 0.0000 0.0000 532.3664 -10988.9146 92.2517 -11521.2811 -10987.4562 90.0165 761.8864 802.4759 27967.2848 5.1006 4.9346
TCL: Running 100000 steps at 120 kelvin.
TCL: Setting parameter langevinTemp to 120
TCL: Running for 100000 steps
ETITLE: TS BOND ANGLE DIHED IMPRP ELECT VDW BOUNDARY MISC KINETIC TOTAL TEMP POTENTIAL TOTAL3 TEMPAVG PRESSURE GPRESSURE VOLUME PRESSAVG GPRESSAVG
ENERGY: 300000 0.0000 0.0000 0.0000 0.0000 -13954.2037 2432.9226 0.0000 0.0000 532.1075 -10989.1736 92.2068 -11521.2811 -10988.0942 92.2068 752.5150 802.8705 27967.2848 752.5150 802.8705
ENERGY: 400000 0.0000 0.0000 0.0000 0.0000 -13813.5106 2437.3491 0.0000 0.0000 701.0648 -10675.0967 121.4848 -11376.1615 -10673.7456 120.0469 1282.1857 1310.6643 28140.6024 4.1309 4.0670
TCL: Running 100000 steps at 150 kelvin.
TCL: Setting parameter langevinTemp to 150
TCL: Running for 100000 steps
ETITLE: TS BOND ANGLE DIHED IMPRP ELECT VDW BOUNDARY MISC KINETIC TOTAL TEMP POTENTIAL TOTAL3 TEMPAVG PRESSURE GPRESSURE VOLUME PRESSAVG GPRESSAVG
ENERGY: 400000 0.0000 0.0000 0.0000 0.0000 -13813.5106 2437.3491 0.0000 0.0000 700.7213 -10675.4402 121.4253 -11376.1615 -10674.2570 121.4253 1271.3839 1310.4668 28140.6024 1271.3839 1310.4668
ENERGY: 500000 0.0000 0.0000 0.0000 0.0000 -13408.3897 2167.1167 0.0000 0.0000 845.6657 -10395.6073 146.5421 -11241.2730 -10394.0194 149.7112 -484.0998 -486.9310 28385.3288 3.8149 3.8931
TCL: Running 100000 steps at 180 kelvin.
TCL: Setting parameter langevinTemp to 180
TCL: Running for 100000 steps
ETITLE: TS BOND ANGLE DIHED IMPRP ELECT VDW BOUNDARY MISC KINETIC TOTAL TEMP POTENTIAL TOTAL3 TEMPAVG PRESSURE GPRESSURE VOLUME PRESSAVG GPRESSAVG
ENERGY: 500000 0.0000 0.0000 0.0000 0.0000 -13408.3897 2167.1167 0.0000 0.0000 845.2322 -10396.0408 146.4670 -11241.2730 -10394.0429 146.4670 -524.1562 -488.0718 28385.3288 -524.1562 -488.0718
ENERGY: 600000 0.0000 0.0000 0.0000 0.0000 -12872.9681 2015.1351 0.0000 0.0000 1071.2346 -9786.5985 185.6301 -10857.8330 -9784.7861 179.7370 -384.5083 -345.0988 28547.5913 4.4127 4.2782
TCL: Running 100000 steps at 210 kelvin.
TCL: Setting parameter langevinTemp to 210
TCL: Running for 100000 steps
ETITLE: TS BOND ANGLE DIHED IMPRP ELECT VDW BOUNDARY MISC KINETIC TOTAL TEMP POTENTIAL TOTAL3 TEMPAVG PRESSURE GPRESSURE VOLUME PRESSAVG GPRESSAVG
ENERGY: 600000 0.0000 0.0000 0.0000 0.0000 -12872.9681 2015.1351 0.0000 0.0000 1070.7253 -9787.1077 185.5418 -10857.8330 -9785.0948 185.5418 -398.8775 -345.5112 28547.5913 -398.8775 -345.5112
ENERGY: 700000 0.0000 0.0000 0.0000 0.0000 -12362.5378 1930.9419 0.0000 0.0000 1203.2416 -9228.3543 208.5051 -10431.5959 -9225.0201 209.6775 360.7819 419.5626 28703.4999 2.8538 2.8332
TCL: Running 100000 steps at 240 kelvin.
TCL: Setting parameter langevinTemp to 240
TCL: Running for 100000 steps
ETITLE: TS BOND ANGLE DIHED IMPRP ELECT VDW BOUNDARY MISC KINETIC TOTAL TEMP POTENTIAL TOTAL3 TEMPAVG PRESSURE GPRESSURE VOLUME PRESSAVG GPRESSAVG
ENERGY: 700000 0.0000 0.0000 0.0000 0.0000 -12362.5378 1930.9419 0.0000 0.0000 1202.6518 -9228.9441 208.4029 -10431.5959 -9227.0355 208.4029 340.1308 420.4478 28703.4999 340.1308 420.4478
ENERGY: 800000 0.0000 0.0000 0.0000 0.0000 -11680.8397 1698.5447 0.0000 0.0000 1383.7536 -8598.5413 239.7853 -9982.2949 -8594.4125 239.6808 -189.2035 -86.2634 29223.2221 2.4822 2.5579
TCL: Running 100000 steps at 270 kelvin.
TCL: Setting parameter langevinTemp to 270
TCL: Running for 100000 steps
ETITLE: TS BOND ANGLE DIHED IMPRP ELECT VDW BOUNDARY MISC KINETIC TOTAL TEMP POTENTIAL TOTAL3 TEMPAVG PRESSURE GPRESSURE VOLUME PRESSAVG GPRESSAVG
ENERGY: 800000 0.0000 0.0000 0.0000 0.0000 -11680.8397 1698.5447 0.0000 0.0000 1383.0310 -8599.2639 239.6601 -9982.2949 -8597.1775 239.6601 -170.4644 -84.5667 29223.2221 -170.4644 -84.5667
ENERGY: 900000 0.0000 0.0000 0.0000 0.0000 -11185.6718 1586.1291 0.0000 0.0000 1561.9923 -8037.5504 270.6716 -9599.5427 -8029.2358 269.4952 97.8776 209.0392 29565.9635 2.1862 2.0101
TCL: Running 1000000 steps at 300 kelvin.
TCL: Setting parameter langevinTemp to 300
TCL: Running for 1000000 steps
ETITLE: TS BOND ANGLE DIHED IMPRP ELECT VDW BOUNDARY MISC KINETIC TOTAL TEMP POTENTIAL TOTAL3 TEMPAVG PRESSURE GPRESSURE VOLUME PRESSAVG GPRESSAVG
ENERGY: 900000 0.0000 0.0000 0.0000 0.0000 -11185.6718 1586.1291 0.0000 0.0000 1561.1939 -8038.3487 270.5332 -9599.5427 -8036.3803 270.5332 130.7652 212.6388 29565.9635 130.7652 212.6388
ENERGY: 1100000 0.0000 0.0000 0.0000 0.0000 -10685.9924 1442.4721 0.0000 0.0000 1720.4932 -7523.0271 298.1376 -9243.5203 -7518.4558 300.7273 9.2087 58.2785 30562.5691 3.6396 3.6715
ENERGY: 1300000 0.0000 0.0000 0.0000 0.0000 -10505.5175 1310.9204 0.0000 0.0000 1690.2622 -7504.3349 292.8990 -9194.5971 -7503.8796 300.2837 -924.6877 -858.8469 30272.0525 3.8606 3.8460
ENERGY: 1500000 0.0000 0.0000 0.0000 0.0000 -10590.7604 1364.1991 0.0000 0.0000 1716.4387 -7510.1226 297.4350 -9226.5613 -7504.5292 300.3812 -373.8613 -249.0225 29908.9137 1.7947 1.4699
ENERGY: 1700000 0.0000 0.0000 0.0000 0.0000 -10705.2631 1425.0363 0.0000 0.0000 1706.6990 -7573.5278 295.7472 -9280.2268 -7569.6758 300.0924 -478.9240 -356.3042 30700.5683 2.6239 2.5496
ENERGY: 1900000 0.0000 0.0000 0.0000 0.0000 -10516.9811 1394.7184 0.0000 0.0000 1765.8744 -7356.3884 306.0015 -9122.2628 -7354.2281 300.2043 16.0700 132.0870 30292.6892 4.0185 3.9638
TCL: Exiting due to exit command.
