Info: SIMULATION PARAMETERS:
Info: TIMESTEP               2
Info: NUMBER OF STEPS        0
Info: STEPS PER CYCLE        10
Info: PERIODIC CELL BASIS 1  37.435 0 0
Info: PERIODIC CELL BASIS 2  0 35.847 0
Info: PERIODIC CELL BASIS 3  0 0 31.855
Info: PERIODIC CELL CENTER   0 0 0
Info: WRAPPING WATERS AROUND PERIODIC BOUNDARIES ON OUTPUT.
Info: WRAPPING ALL CLUSTERS AROUND PERIODIC BOUNDARIES ON OUTPUT.
Info: FIRST LDB TIMESTEP     50
Info: LAST LDB TIMESTEP     -1
Info: HOM BACKGROUND SCALING 1
Info: PME BACKGROUND SCALING 1
Info: MIN ATOMS PER PATCH    40
Info: EMPTY PATCH LOAD       40 ATOMS
Info: INITIAL TEMPERATURE    300
Info: CENTER OF MASS MOVING INITIALLY? NO
Info: DIELECTRIC             1
Info: EXCLUDE                SCALED ONE-FOUR
Info: 1-4 ELECTROSTATICS SCALED BY 0.833333
Info: MODIFIED 1-4 VDW PARAMETERS WILL BE USED
Info: DCD FILENAME           mobley_5917842_equil.dcd
Info: DCD FREQUENCY          100000
Info: DCD FIRST STEP         100000
Info: DCD FILE WILL CONTAIN UNIT CELL DATA
Info: XST FILENAME           mobley_5917842_equil.xst
Info: XST FREQUENCY          100000
Info: NO VELOCITY DCD OUTPUT
Info: NO FORCE DCD OUTPUT
Info: OUTPUT FILENAME        mobley_5917842_equil
Info: BINARY OUTPUT FILES WILL BE USED
Info: RESTART FILENAME       mobley_5917842_equil.restart
Info: RESTART FREQUENCY      100000
Info: BINARY RESTART FILES WILL BE USED
Info: CUTOFF                 9
Info: PAIRLIST DISTANCE      11
Info: PAIRLIST SHRINK RATE   0.01
Info: PAIRLIST GROW RATE     0.01
Info: PAIRLIST TRIGGER       0.3
Info: PAIRLISTS PER CYCLE    2
Info: PAIRLISTS ENABLED
Info: MARGIN                 8
Info: HYDROGEN GROUP CUTOFF  2.5
Info: PATCH DIMENSION        21.5
Info: ENERGY OUTPUT STEPS    100000
Info: ENERGY EVALUATION STEPS    100000
Info: OUTPUT ENERGY PRECISION 4
Info: CROSSTERM ENERGY INCLUDED IN DIHEDRAL
Info: TIMING OUTPUT STEPS    1000000
Info: PRESSURE OUTPUT STEPS  100000
Info: FIXED ATOMS ACTIVE
Info: LANGEVIN DYNAMICS ACTIVE
Info: LANGEVIN TEMPERATURE   30
Info: LANGEVIN USING BBK INTEGRATOR
Info: LANGEVIN DAMPING COEFFICIENT IS 1 INVERSE PS
Info: LANGEVIN DYNAMICS APPLIED TO HYDROGENS
Info: LANGEVIN PISTON PRESSURE CONTROL ACTIVE
Info:        TARGET PRESSURE IS 1.01325 BAR
Info:     OSCILLATION PERIOD IS 50 FS
Info:             DECAY TIME IS 25 FS
Info:     PISTON TEMPERATURE IS 300 K
Info:       PRESSURE CONTROL IS GROUP-BASED
Info:    INITIAL STRAIN RATE IS 0 0 0
Info:       CELL FLUCTUATION IS ISOTROPIC
Info: PARTICLE MESH EWALD (PME) ACTIVE
Info: PME TOLERANCE               1e-06
Info: PME EWALD COEFFICIENT       0.348832
Info: PME INTERPOLATION ORDER     4
Info: PME GRID DIMENSIONS         40 36 32
Info: PME MAXIMUM GRID SPACING    1
Info: FULL ELECTROSTATIC EVALUATION FREQUENCY      2
Info: USING VERLET I (r-RESPA) MTS SCHEME.
Info: C1 SPLITTING OF LONG RANGE ELECTROSTATICS
Info: PLACING ATOMS IN PATCHES BY HYDROGEN GROUPS
Info: RIGID BONDS TO HYDROGEN : ALL
Info:         ERROR TOLERANCE : 1e-08
Info:          MAX ITERATIONS : 100
Info: RIGID WATER USING SETTLE ALGORITHM
Info: RANDOM NUMBER SEED     1744725835
Info: USE HYDROGEN BONDS?    NO
Info: Using AMBER format force field!
Info: AMBER PARM FILE        mobley_5917842.prmtop
Info: COORDINATE PDB         mobley_5917842.pdb
Info: Exclusions will be read from PARM file!
Info: SCNB (VDW SCALING)     2
Info: USING ARITHMETIC MEAN TO COMBINE L-J SIGMA PARAMETERS
Info: BINARY COORDINATES     mobley_5917842_min.coor
Info: SUMMARY OF PARAMETERS:
Info: 11 BONDS
Info: 11 ANGLES
Info:   11 HARMONIC
Info:   0 COSINE-BASED
Info: 5 DIHEDRAL
Info: 0 IMPROPER
Info: 0 CROSSTERM
Info: 0 VDW
Info: 45 VDW_PAIRS
Info: 0 NBTHOLE_PAIRS
Info: STRUCTURE SUMMARY:
Info: 2963 ATOMS
Info: 2963 BONDS
Info: 32 ANGLES
Info: 43 DIHEDRALS
Info: 0 IMPROPERS
Info: 0 CROSSTERMS
Info: 3029 EXCLUSIONS
Info: 20 FIXED ATOMS
Info: 2953 RIGID BONDS
Info: 10 RIGID BONDS BETWEEN FIXED ATOMS
Info: 5886 DEGREES OF FREEDOM
Info: 991 HYDROGEN GROUPS
Info: 4 ATOMS IN LARGEST HYDROGEN GROUP
Info: 991 MIGRATION GROUPS
Info: 4 ATOMS IN LARGEST MIGRATION GROUP
Info: 10 HYDROGEN GROUPS WITH ALL ATOMS FIXED
Info: TOTAL MASS = 17811.9 amu
Info: TOTAL CHARGE = -1.49012e-08 e
Info: MASS DENSITY = 0.691927 g/cm^3
Info: ATOM DENSITY = 0.0693144 atoms/A^3
Info: ADDED 0 IMPLICIT EXCLUSIONS
Info: NONBONDED TABLE R-SQUARED SPACING: 0.0625
Info: NONBONDED TABLE SIZE: 705 POINTS
Info: REMOVING COM VELOCITY -0.126937 0.1022 0.00185719
TCL: Running for 100000 steps
ETITLE: TS BOND ANGLE DIHED IMPRP ELECT VDW BOUNDARY MISC KINETIC TOTAL TEMP POTENTIAL TOTAL3 TEMPAVG PRESSURE GPRESSURE VOLUME PRESSAVG GPRESSAVG
ENERGY: 0 0.0000 0.0000 0.0000 0.0000 -13747.5104 2364.4065 0.0000 0.0000 1742.5907 -9640.5132 297.9652 -11383.1039 -9640.1611 297.9652 142.9671 172.5135 42747.2580 142.9671 172.5135
ENERGY: 100000 0.0000 0.0000 0.0000 0.0000 -14243.1754 2403.7377 0.0000 0.0000 177.8488 -11661.5889 30.4103 -11839.4377 -11661.0032 30.8478 -550.0793 -503.2161 28837.1036 3.3881 3.3418
TCL: Running 100000 steps at 60 kelvin.
TCL: Setting parameter langevinTemp to 60
TCL: Running for 100000 steps
ETITLE: TS BOND ANGLE DIHED IMPRP ELECT VDW BOUNDARY MISC KINETIC TOTAL TEMP POTENTIAL TOTAL3 TEMPAVG PRESSURE GPRESSURE VOLUME PRESSAVG GPRESSAVG
ENERGY: 100000 0.0000 0.0000 0.0000 0.0000 -14243.1754 2403.7377 0.0000 0.0000 177.7591 -11661.6786 30.3950 -11839.4377 -11661.2677 30.3950 -548.2177 -503.1033 28837.1036 -548.2177 -503.1033
ENERGY: 200000 0.0000 0.0000 0.0000 0.0000 -14204.1274 2450.2038 0.0000 0.0000 352.3007 -11401.6229 60.2398 -11753.9237 -11400.7110 59.8537 229.8366 278.4605 28605.7769 4.0571 4.0399
TCL: Running 100000 steps at 90 kelvin.
TCL: Setting parameter langevinTemp to 90
TCL: Running for 100000 steps
ETITLE: TS BOND ANGLE DIHED IMPRP ELECT VDW BOUNDARY MISC KINETIC TOTAL TEMP POTENTIAL TOTAL3 TEMPAVG PRESSURE GPRESSURE VOLUME PRESSAVG GPRESSAVG
ENERGY: 200000 0.0000 0.0000 0.0000 0.0000 -14204.1274 2450.2038 0.0000 0.0000 352.1259 -11401.7978 60.2099 -11753.9237 -11401.2513 60.2099 231.3216 278.3694 28605.7769 231.3216 278.3694
ENERGY: 300000 0.0000 0.0000 0.0000 0.0000 -14026.3572 2360.8266 0.0000 0.0000 522.1936 -11143.3370 89.2898 -11665.5306 -11141.5766 90.0060 67.0722 128.4159 28407.0654 3.3974 3.4322
TCL: Running 100000 steps at 120 kelvin.
TCL: Setting parameter langevinTemp to 120
TCL: Running for 100000 steps
ETITLE: TS BOND ANGLE DIHED IMPRP ELECT VDW BOUNDARY MISC KINETIC TOTAL TEMP POTENTIAL TOTAL3 TEMPAVG PRESSURE GPRESSURE VOLUME PRESSAVG GPRESSAVG
ENERGY: 300000 0.0000 0.0000 0.0000 0.0000 -14026.3572 2360.8266 0.0000 0.0000 521.9375 -11143.5931 89.2460 -11665.5306 -11142.2954 89.2460 91.9547 128.8410 28407.0654 91.9547 128.8410
ENERGY: 400000 0.0000 0.0000 0.0000 0.0000 -13821.3104 2286.2782 0.0000 0.0000 705.9093 -10829.1229 120.7033 -11535.0322 -10826.9584 120.0582 -261.5147 -197.5723 28562.4040 4.5527 4.6061
TCL: Running 100000 steps at 150 kelvin.
TCL: Setting parameter langevinTemp to 150
TCL: Running for 100000 steps
ETITLE: TS BOND ANGLE DIHED IMPRP ELECT VDW BOUNDARY MISC KINETIC TOTAL TEMP POTENTIAL TOTAL3 TEMPAVG PRESSURE GPRESSURE VOLUME PRESSAVG GPRESSAVG
ENERGY: 400000 0.0000 0.0000 0.0000 0.0000 -13821.3104 2286.2782 0.0000 0.0000 705.5650 -10829.4672 120.6444 -11535.0322 -10828.1573 120.6444 -242.3152 -197.5270 28562.4040 -242.3152 -197.5270
ENERGY: 500000 0.0000 0.0000 0.0000 0.0000 -13550.5112 2148.7259 0.0000 0.0000 891.1474 -10510.6379 152.3771 -11401.7854 -10508.8062 150.1725 -979.8190 -873.0670 28998.5240 4.2681 4.1136
TCL: Running 100000 steps at 180 kelvin.
TCL: Setting parameter langevinTemp to 180
TCL: Running for 100000 steps
ETITLE: TS BOND ANGLE DIHED IMPRP ELECT VDW BOUNDARY MISC KINETIC TOTAL TEMP POTENTIAL TOTAL3 TEMPAVG PRESSURE GPRESSURE VOLUME PRESSAVG GPRESSAVG
ENERGY: 500000 0.0000 0.0000 0.0000 0.0000 -13550.5112 2148.7259 0.0000 0.0000 890.7257 -10511.0596 152.3050 -11401.7854 -10509.1000 152.3050 -931.9822 -873.5623 28998.5240 -931.9822 -873.5623
ENERGY: 600000 0.0000 0.0000 0.0000 0.0000 -13091.1717 2029.8374 0.0000 0.0000 1072.3661 -9988.9682 183.3636 -11061.3343 -9986.4057 180.1303 -809.6562 -681.0532 29135.8682 3.1044 3.3033
TCL: Running 100000 steps at 210 kelvin.
TCL: Setting parameter langevinTemp to 210
TCL: Running for 100000 steps
ETITLE: TS BOND ANGLE DIHED IMPRP ELECT VDW BOUNDARY MISC KINETIC TOTAL TEMP POTENTIAL TOTAL3 TEMPAVG PRESSURE GPRESSURE VOLUME PRESSAVG GPRESSAVG
ENERGY: 600000 0.0000 0.0000 0.0000 0.0000 -13091.1717 2029.8374 0.0000 0.0000 1071.8341 -9989.5002 183.2727 -11061.3343 -9987.4688 183.2727 -742.3930 -681.0164 29135.8682 -742.3930 -681.0164
ENERGY: 700000 0.0000 0.0000 0.0000 0.0000 -12455.9767 1883.9244 0.0000 0.0000 1239.1855 -9332.8668 211.8880 -10572.0523 -9330.1656 209.4018 187.6719 232.0107 28732.3897 5.0986 5.0350
TCL: Running 100000 steps at 240 kelvin.
TCL: Setting parameter langevinTemp to 240
TCL: Running for 100000 steps
ETITLE: TS BOND ANGLE DIHED IMPRP ELECT VDW BOUNDARY MISC KINETIC TOTAL TEMP POTENTIAL TOTAL3 TEMPAVG PRESSURE GPRESSURE VOLUME PRESSAVG GPRESSAVG
ENERGY: 700000 0.0000 0.0000 0.0000 0.0000 -12455.9767 1883.9244 0.0000 0.0000 1238.5823 -9333.4700 211.7849 -10572.0523 -9331.8407 211.7849 150.7970 232.2570 28732.3897 150.7970 232.2570
ENERGY: 800000 0.0000 0.0000 0.0000 0.0000 -11862.4993 1760.1093 0.0000 0.0000 1382.8073 -8719.5827 236.4459 -10102.3900 -8718.3162 240.3857 332.4914 439.1465 29308.4028 2.5382 2.6086
TCL: Running 100000 steps at 270 kelvin.
TCL: Setting parameter langevinTemp to 270
TCL: Running for 100000 steps
ETITLE: TS BOND ANGLE DIHED IMPRP ELECT VDW BOUNDARY MISC KINETIC TOTAL TEMP POTENTIAL TOTAL3 TEMPAVG PRESSURE GPRESSURE VOLUME PRESSAVG GPRESSAVG
ENERGY: 800000 0.0000 0.0000 0.0000 0.0000 -11862.4993 1760.1093 0.0000 0.0000 1382.1087 -8720.2814 236.3264 -10102.3900 -8717.7772 236.3264 346.6028 438.0834 29308.4028 346.6028 438.0834
ENERGY: 900000 0.0000 0.0000 0.0000 0.0000 -11343.9873 1529.0198 0.0000 0.0000 1551.8841 -8263.0834 265.3563 -9814.9675 -8260.8079 269.5819 -635.1824 -604.4972 29902.2019 4.9070 4.9289
TCL: Running 1000000 steps at 300 kelvin.
TCL: Setting parameter langevinTemp to 300
TCL: Running for 1000000 steps
ETITLE: TS BOND ANGLE DIHED IMPRP ELECT VDW BOUNDARY MISC KINETIC TOTAL TEMP POTENTIAL TOTAL3 TEMPAVG PRESSURE GPRESSURE VOLUME PRESSAVG GPRESSAVG
ENERGY: 900000 0.0000 0.0000 0.0000 0.0000 -11343.9873 1529.0198 0.0000 0.0000 1551.1196 -8263.8479 265.2256 -9814.9675 -8261.3809 265.2256 -684.0762 -604.8396 29902.2019 -684.0762 -604.8396
ENERGY: 1100000 0.0000 0.0000 0.0000 0.0000 -10838.9622 1526.4963 0.0000 0.0000 1723.8051 -7588.6608 294.7530 -9312.4659 -7582.9859 300.3397 616.4509 773.3727 30636.8801 2.8865 2.9745
ENERGY: 1300000 0.0000 0.0000 0.0000 0.0000 -10608.1915 1383.4522 0.0000 0.0000 1770.7366 -7454.0027 302.7778 -9224.7393 -7449.9522 300.1147 -343.4641 -276.4961 31267.8495 3.2486 3.1031
ENERGY: 1500000 0.0000 0.0000 0.0000 0.0000 -10855.3740 1507.1873 0.0000 0.0000 1750.9329 -7597.2538 299.3916 -9348.1867 -7590.0788 299.9970 379.7246 440.0305 30669.0027 2.8341 2.6776
ENERGY: 1700000 0.0000 0.0000 0.0000 0.0000 -10730.3812 1355.5730 0.0000 0.0000 1683.9541 -7690.8541 287.9389 -9374.8082 -7688.4277 300.3202 -763.6282 -771.4479 30712.1393 4.2334 4.0658
ENERGY: 1900000 0.0000 0.0000 0.0000 0.0000 -10714.8505 1423.1921 0.0000 0.0000 1738.5984 -7553.0601 297.2825 -9291.6585 -7549.9661 300.7550 202.3432 281.9603 30340.2110 1.7994 2.0575
TCL: Exiting due to exit command.
