Info: SIMULATION PARAMETERS:
Info: TIMESTEP               2
Info: NUMBER OF STEPS        0
Info: STEPS PER CYCLE        10
Info: PERIODIC CELL BASIS 1  37.968 0 0
Info: PERIODIC CELL BASIS 2  0 34.26 0
Info: PERIODIC CELL BASIS 3  0 0 33.876
Info: PERIODIC CELL CENTER   0 0 0
Info: WRAPPING WATERS AROUND PERIODIC BOUNDARIES ON OUTPUT.
Info: WRAPPING ALL CLUSTERS AROUND PERIODIC BOUNDARIES ON OUTPUT.
Info: FIRST LDB TIMESTEP     50
Info: LAST LDB TIMESTEP     -1
Info: HOM BACKGROUND SCALING 1
Info: PME BACKGROUND SCALING 1
Info: MIN ATOMS PER PATCH    40
Info: EMPTY PATCH LOAD       40 ATOMS
Info: INITIAL TEMPERATURE    300
Info: CENTER OF MASS MOVING INITIALLY? NO
Info: DIELECTRIC             1
Info: EXCLUDE                SCALED ONE-FOUR
Info: 1-4 ELECTROSTATICS SCALED BY 0.833333
Info: MODIFIED 1-4 VDW PARAMETERS WILL BE USED
Info: DCD FILENAME           mobley_1160109_equil.dcd
Info: DCD FREQUENCY          100000
Info: DCD FIRST STEP         100000
Info: DCD FILE WILL CONTAIN UNIT CELL DATA
Info: XST FILENAME           mobley_1160109_equil.xst
Info: XST FREQUENCY          100000
Info: NO VELOCITY DCD OUTPUT
Info: NO FORCE DCD OUTPUT
Info: OUTPUT FILENAME        mobley_1160109_equil
Info: BINARY OUTPUT FILES WILL BE USED
Info: RESTART FILENAME       mobley_1160109_equil.restart
Info: RESTART FREQUENCY      100000
Info: BINARY RESTART FILES WILL BE USED
Info: CUTOFF                 9
Info: PAIRLIST DISTANCE      11
Info: PAIRLIST SHRINK RATE   0.01
Info: PAIRLIST GROW RATE     0.01
Info: PAIRLIST TRIGGER       0.3
Info: PAIRLISTS PER CYCLE    2
Info: PAIRLISTS ENABLED
Info: MARGIN                 8
Info: HYDROGEN GROUP CUTOFF  2.5
Info: PATCH DIMENSION        21.5
Info: ENERGY OUTPUT STEPS    100000
Info: ENERGY EVALUATION STEPS    100000
Info: OUTPUT ENERGY PRECISION 4
Info: CROSSTERM ENERGY INCLUDED IN DIHEDRAL
Info: TIMING OUTPUT STEPS    1000000
Info: PRESSURE OUTPUT STEPS  100000
Info: FIXED ATOMS ACTIVE
Info: LANGEVIN DYNAMICS ACTIVE
Info: LANGEVIN TEMPERATURE   30
Info: LANGEVIN USING BBK INTEGRATOR
Info: LANGEVIN DAMPING COEFFICIENT IS 1 INVERSE PS
Info: LANGEVIN DYNAMICS APPLIED TO HYDROGENS
Info: LANGEVIN PISTON PRESSURE CONTROL ACTIVE
Info:        TARGET PRESSURE IS 1.01325 BAR
Info:     OSCILLATION PERIOD IS 50 FS
Info:             DECAY TIME IS 25 FS
Info:     PISTON TEMPERATURE IS 300 K
Info:       PRESSURE CONTROL IS GROUP-BASED
Info:    INITIAL STRAIN RATE IS 0 0 0
Info:       CELL FLUCTUATION IS ISOTROPIC
Info: PARTICLE MESH EWALD (PME) ACTIVE
Info: PME TOLERANCE               1e-06
Info: PME EWALD COEFFICIENT       0.348832
Info: PME INTERPOLATION ORDER     4
Info: PME GRID DIMENSIONS         40 36 36
Info: PME MAXIMUM GRID SPACING    1
Info: FULL ELECTROSTATIC EVALUATION FREQUENCY      2
Info: USING VERLET I (r-RESPA) MTS SCHEME.
Info: C1 SPLITTING OF LONG RANGE ELECTROSTATICS
Info: PLACING ATOMS IN PATCHES BY HYDROGEN GROUPS
Info: RIGID BONDS TO HYDROGEN : ALL
Info:         ERROR TOLERANCE : 1e-08
Info:          MAX ITERATIONS : 100
Info: RIGID WATER USING SETTLE ALGORITHM
Info: RANDOM NUMBER SEED     1744763015
Info: USE HYDROGEN BONDS?    NO
Info: Using AMBER format force field!
Info: AMBER PARM FILE        mobley_1160109.prmtop
Info: COORDINATE PDB         mobley_1160109.pdb
Info: Exclusions will be read from PARM file!
Info: SCNB (VDW SCALING)     2
Info: USING ARITHMETIC MEAN TO COMBINE L-J SIGMA PARAMETERS
Info: BINARY COORDINATES     mobley_1160109_min.coor
Info: SUMMARY OF PARAMETERS:
Info: 9 BONDS
Info: 13 ANGLES
Info:   13 HARMONIC
Info:   0 COSINE-BASED
Info: 15 DIHEDRAL
Info: 0 IMPROPER
Info: 0 CROSSTERM
Info: 0 VDW
Info: 28 VDW_PAIRS
Info: 0 NBTHOLE_PAIRS
Info: STRUCTURE SUMMARY:
Info: 2943 ATOMS
Info: 2943 BONDS
Info: 51 ANGLES
Info: 96 DIHEDRALS
Info: 0 IMPROPERS
Info: 0 CROSSTERMS
Info: 3064 EXCLUSIONS
Info: 27 FIXED ATOMS
Info: 2932 RIGID BONDS
Info: 16 RIGID BONDS BETWEEN FIXED ATOMS
Info: 5832 DEGREES OF FREEDOM
Info: 983 HYDROGEN GROUPS
Info: 4 ATOMS IN LARGEST HYDROGEN GROUP
Info: 983 MIGRATION GROUPS
Info: 4 ATOMS IN LARGEST MIGRATION GROUP
Info: 11 HYDROGEN GROUPS WITH ALL ATOMS FIXED
Info: TOTAL MASS = 17663.8 amu
Info: TOTAL CHARGE = -0.000199955 e
Info: MASS DENSITY = 0.66565 g/cm^3
Info: ATOM DENSITY = 0.0667872 atoms/A^3
Info: ADDED 0 IMPLICIT EXCLUSIONS
Info: NONBONDED TABLE R-SQUARED SPACING: 0.0625
Info: NONBONDED TABLE SIZE: 705 POINTS
Info: REMOVING COM VELOCITY 0.0588255 0.108607 0.013164
TCL: Running for 100000 steps
ETITLE: TS BOND ANGLE DIHED IMPRP ELECT VDW BOUNDARY MISC KINETIC TOTAL TEMP POTENTIAL TOTAL3 TEMPAVG PRESSURE GPRESSURE VOLUME PRESSAVG GPRESSAVG
ENERGY: 0 0.0000 0.0000 0.0000 0.0000 -13541.1481 2358.2829 0.0000 0.0000 1731.1786 -9451.6866 298.7547 -11182.8652 -9451.3564 298.7547 299.9059 331.3175 44065.3479 299.9059 331.3175
ENERGY: 100000 0.0000 0.0000 0.0000 0.0000 -14179.2529 2498.8983 0.0000 0.0000 175.8490 -11504.5056 30.3468 -11680.3546 -11503.9147 30.9037 268.5090 323.4399 29366.3941 2.6798 2.6637
TCL: Running 100000 steps at 60 kelvin.
TCL: Setting parameter langevinTemp to 60
TCL: Running for 100000 steps
ETITLE: TS BOND ANGLE DIHED IMPRP ELECT VDW BOUNDARY MISC KINETIC TOTAL TEMP POTENTIAL TOTAL3 TEMPAVG PRESSURE GPRESSURE VOLUME PRESSAVG GPRESSAVG
ENERGY: 100000 0.0000 0.0000 0.0000 0.0000 -14179.2529 2498.8983 0.0000 0.0000 175.7605 -11504.5941 30.3315 -11680.3546 -11504.2064 30.3315 269.8071 323.6473 29366.3941 269.8071 323.6473
ENERGY: 200000 0.0000 0.0000 0.0000 0.0000 -14068.7102 2395.8821 0.0000 0.0000 354.9668 -11317.8613 61.2577 -11672.8281 -11317.1995 59.9028 -258.5103 -174.5094 28834.7704 4.2391 4.2579
TCL: Running 100000 steps at 90 kelvin.
TCL: Setting parameter langevinTemp to 90
TCL: Running for 100000 steps
ETITLE: TS BOND ANGLE DIHED IMPRP ELECT VDW BOUNDARY MISC KINETIC TOTAL TEMP POTENTIAL TOTAL3 TEMPAVG PRESSURE GPRESSURE VOLUME PRESSAVG GPRESSAVG
ENERGY: 200000 0.0000 0.0000 0.0000 0.0000 -14068.7102 2395.8821 0.0000 0.0000 354.7936 -11318.0344 61.2278 -11672.8281 -11317.3712 61.2278 -233.8794 -174.8552 28834.7704 -233.8794 -174.8552
ENERGY: 300000 0.0000 0.0000 0.0000 0.0000 -13989.7288 2466.1274 0.0000 0.0000 538.9558 -10984.6456 93.0092 -11523.6014 -10983.6643 89.8877 952.8235 959.6512 28780.1878 3.1910 3.2320
TCL: Running 100000 steps at 120 kelvin.
TCL: Setting parameter langevinTemp to 120
TCL: Running for 100000 steps
ETITLE: TS BOND ANGLE DIHED IMPRP ELECT VDW BOUNDARY MISC KINETIC TOTAL TEMP POTENTIAL TOTAL3 TEMPAVG PRESSURE GPRESSURE VOLUME PRESSAVG GPRESSAVG
ENERGY: 300000 0.0000 0.0000 0.0000 0.0000 -13989.7288 2466.1274 0.0000 0.0000 538.7038 -10984.8976 92.9657 -11523.6014 -10983.9712 92.9657 913.7578 959.9501 28780.1878 913.7578 959.9501
ENERGY: 400000 0.0000 0.0000 0.0000 0.0000 -13641.1538 2218.6667 0.0000 0.0000 692.8895 -10729.5977 119.5740 -11422.4871 -10727.3704 120.0795 -798.0224 -747.9747 28928.2492 3.6582 3.6658
TCL: Running 100000 steps at 150 kelvin.
TCL: Setting parameter langevinTemp to 150
TCL: Running for 100000 steps
ETITLE: TS BOND ANGLE DIHED IMPRP ELECT VDW BOUNDARY MISC KINETIC TOTAL TEMP POTENTIAL TOTAL3 TEMPAVG PRESSURE GPRESSURE VOLUME PRESSAVG GPRESSAVG
ENERGY: 400000 0.0000 0.0000 0.0000 0.0000 -13641.1538 2218.6667 0.0000 0.0000 692.5417 -10729.9454 119.5140 -11422.4871 -10728.3231 119.5140 -800.8466 -748.2360 28928.2492 -800.8466 -748.2360
ENERGY: 500000 0.0000 0.0000 0.0000 0.0000 -13496.9674 2231.6583 0.0000 0.0000 854.9329 -10410.3761 147.5383 -11265.3091 -10408.7233 149.6213 -50.7030 1.3170 28631.0199 3.0427 3.1236
TCL: Running 100000 steps at 180 kelvin.
TCL: Setting parameter langevinTemp to 180
TCL: Running for 100000 steps
ETITLE: TS BOND ANGLE DIHED IMPRP ELECT VDW BOUNDARY MISC KINETIC TOTAL TEMP POTENTIAL TOTAL3 TEMPAVG PRESSURE GPRESSURE VOLUME PRESSAVG GPRESSAVG
ENERGY: 500000 0.0000 0.0000 0.0000 0.0000 -13496.9674 2231.6583 0.0000 0.0000 854.4995 -10410.8096 147.4635 -11265.3091 -10408.8728 147.4635 -27.2159 0.3473 28631.0199 -27.2159 0.3473
ENERGY: 600000 0.0000 0.0000 0.0000 0.0000 -12931.3796 1982.3445 0.0000 0.0000 1054.9187 -9894.1164 182.0505 -10949.0351 -9891.7787 180.0684 -940.3403 -922.5015 29029.8451 3.4581 3.4747
TCL: Running 100000 steps at 210 kelvin.
TCL: Setting parameter langevinTemp to 210
TCL: Running for 100000 steps
ETITLE: TS BOND ANGLE DIHED IMPRP ELECT VDW BOUNDARY MISC KINETIC TOTAL TEMP POTENTIAL TOTAL3 TEMPAVG PRESSURE GPRESSURE VOLUME PRESSAVG GPRESSAVG
ENERGY: 600000 0.0000 0.0000 0.0000 0.0000 -12931.3796 1982.3445 0.0000 0.0000 1054.4077 -9894.6275 181.9623 -10949.0351 -9892.2477 181.9623 -993.8475 -923.0553 29029.8451 -993.8475 -923.0553
ENERGY: 700000 0.0000 0.0000 0.0000 0.0000 -12397.9700 1894.9966 0.0000 0.0000 1194.5635 -9308.4099 206.1494 -10502.9734 -9305.6919 210.1376 147.3603 240.5137 28395.1268 4.2589 4.2441
TCL: Running 100000 steps at 240 kelvin.
TCL: Setting parameter langevinTemp to 240
TCL: Running for 100000 steps
ETITLE: TS BOND ANGLE DIHED IMPRP ELECT VDW BOUNDARY MISC KINETIC TOTAL TEMP POTENTIAL TOTAL3 TEMPAVG PRESSURE GPRESSURE VOLUME PRESSAVG GPRESSAVG
ENERGY: 700000 0.0000 0.0000 0.0000 0.0000 -12397.9700 1894.9966 0.0000 0.0000 1193.9823 -9308.9911 206.0491 -10502.9734 -9306.6702 206.0491 161.5879 242.4810 28395.1268 161.5879 242.4810
ENERGY: 800000 0.0000 0.0000 0.0000 0.0000 -11662.3338 1624.7646 0.0000 0.0000 1398.8799 -8638.6893 241.4089 -10037.5692 -8635.1346 240.5199 -421.0487 -348.4703 28858.2012 3.7466 3.5836
TCL: Running 100000 steps at 270 kelvin.
TCL: Setting parameter langevinTemp to 270
TCL: Running for 100000 steps
ETITLE: TS BOND ANGLE DIHED IMPRP ELECT VDW BOUNDARY MISC KINETIC TOTAL TEMP POTENTIAL TOTAL3 TEMPAVG PRESSURE GPRESSURE VOLUME PRESSAVG GPRESSAVG
ENERGY: 800000 0.0000 0.0000 0.0000 0.0000 -11662.3338 1624.7646 0.0000 0.0000 1398.1778 -8639.3914 241.2877 -10037.5692 -8636.9874 241.2877 -420.4849 -347.3943 28858.2012 -420.4849 -347.3943
ENERGY: 900000 0.0000 0.0000 0.0000 0.0000 -11260.1008 1580.5112 0.0000 0.0000 1596.0887 -8083.5009 275.4418 -9679.5896 -8082.0121 269.7700 192.9413 287.0391 29546.3935 3.4111 3.3285
TCL: Running 1000000 steps at 300 kelvin.
TCL: Setting parameter langevinTemp to 300
TCL: Running for 1000000 steps
ETITLE: TS BOND ANGLE DIHED IMPRP ELECT VDW BOUNDARY MISC KINETIC TOTAL TEMP POTENTIAL TOTAL3 TEMPAVG PRESSURE GPRESSURE VOLUME PRESSAVG GPRESSAVG
ENERGY: 900000 0.0000 0.0000 0.0000 0.0000 -11260.1008 1580.5112 0.0000 0.0000 1595.2939 -8084.2957 275.3047 -9679.5896 -8081.6835 275.3047 200.2808 286.1980 29546.3935 200.2808 286.1980
ENERGY: 1100000 0.0000 0.0000 0.0000 0.0000 -10774.8044 1446.1163 0.0000 0.0000 1734.8306 -7593.8576 299.3849 -9328.6882 -7588.9671 300.1082 -136.9795 -20.9928 30533.0902 2.7771 2.9409
ENERGY: 1300000 0.0000 0.0000 0.0000 0.0000 -10600.1168 1338.8733 0.0000 0.0000 1786.5365 -7474.7070 308.3080 -9261.2436 -7472.1166 300.4575 -488.7007 -392.0347 30083.3790 3.2585 3.1976
ENERGY: 1500000 0.0000 0.0000 0.0000 0.0000 -10542.6379 1402.4858 0.0000 0.0000 1670.6987 -7469.4534 288.3175 -9140.1521 -7465.9999 300.0338 -161.1711 -132.9336 30958.6704 2.8478 2.7844
ENERGY: 1700000 0.0000 0.0000 0.0000 0.0000 -10819.1021 1528.5622 0.0000 0.0000 1773.6729 -7516.8670 306.0881 -9290.5399 -7515.2784 300.1825 740.7084 811.5134 30125.7112 3.2936 3.2927
ENERGY: 1900000 0.0000 0.0000 0.0000 0.0000 -10834.5213 1521.8817 0.0000 0.0000 1723.3463 -7589.2933 297.4031 -9312.6396 -7586.3174 300.8862 603.0783 720.3738 30314.2958 2.2198 2.3212
TCL: Exiting due to exit command.
