Info: SIMULATION PARAMETERS:
Info: TIMESTEP               2
Info: NUMBER OF STEPS        0
Info: STEPS PER CYCLE        10
Info: PERIODIC CELL BASIS 1  37.133 0 0
Info: PERIODIC CELL BASIS 2  0 34.26 0
Info: PERIODIC CELL BASIS 3  0 0 34.68
Info: PERIODIC CELL CENTER   0 0 0
Info: WRAPPING WATERS AROUND PERIODIC BOUNDARIES ON OUTPUT.
Info: WRAPPING ALL CLUSTERS AROUND PERIODIC BOUNDARIES ON OUTPUT.
Info: FIRST LDB TIMESTEP     50
Info: LAST LDB TIMESTEP     -1
Info: HOM BACKGROUND SCALING 1
Info: PME BACKGROUND SCALING 1
Info: MIN ATOMS PER PATCH    40
Info: EMPTY PATCH LOAD       40 ATOMS
Info: INITIAL TEMPERATURE    300
Info: CENTER OF MASS MOVING INITIALLY? NO
Info: DIELECTRIC             1
Info: EXCLUDE                SCALED ONE-FOUR
Info: 1-4 ELECTROSTATICS SCALED BY 0.833333
Info: MODIFIED 1-4 VDW PARAMETERS WILL BE USED
Info: DCD FILENAME           mobley_2294995_equil.dcd
Info: DCD FREQUENCY          100000
Info: DCD FIRST STEP         100000
Info: DCD FILE WILL CONTAIN UNIT CELL DATA
Info: XST FILENAME           mobley_2294995_equil.xst
Info: XST FREQUENCY          100000
Info: NO VELOCITY DCD OUTPUT
Info: NO FORCE DCD OUTPUT
Info: OUTPUT FILENAME        mobley_2294995_equil
Info: BINARY OUTPUT FILES WILL BE USED
Info: RESTART FILENAME       mobley_2294995_equil.restart
Info: RESTART FREQUENCY      100000
Info: BINARY RESTART FILES WILL BE USED
Info: CUTOFF                 9
Info: PAIRLIST DISTANCE      11
Info: PAIRLIST SHRINK RATE   0.01
Info: PAIRLIST GROW RATE     0.01
Info: PAIRLIST TRIGGER       0.3
Info: PAIRLISTS PER CYCLE    2
Info: PAIRLISTS ENABLED
Info: MARGIN                 8
Info: HYDROGEN GROUP CUTOFF  2.5
Info: PATCH DIMENSION        21.5
Info: ENERGY OUTPUT STEPS    100000
Info: ENERGY EVALUATION STEPS    100000
Info: OUTPUT ENERGY PRECISION 4
Info: CROSSTERM ENERGY INCLUDED IN DIHEDRAL
Info: TIMING OUTPUT STEPS    1000000
Info: PRESSURE OUTPUT STEPS  100000
Info: FIXED ATOMS ACTIVE
Info: LANGEVIN DYNAMICS ACTIVE
Info: LANGEVIN TEMPERATURE   30
Info: LANGEVIN USING BBK INTEGRATOR
Info: LANGEVIN DAMPING COEFFICIENT IS 1 INVERSE PS
Info: LANGEVIN DYNAMICS APPLIED TO HYDROGENS
Info: LANGEVIN PISTON PRESSURE CONTROL ACTIVE
Info:        TARGET PRESSURE IS 1.01325 BAR
Info:     OSCILLATION PERIOD IS 50 FS
Info:             DECAY TIME IS 25 FS
Info:     PISTON TEMPERATURE IS 300 K
Info:       PRESSURE CONTROL IS GROUP-BASED
Info:    INITIAL STRAIN RATE IS 0 0 0
Info:       CELL FLUCTUATION IS ISOTROPIC
Info: PARTICLE MESH EWALD (PME) ACTIVE
Info: PME TOLERANCE               1e-06
Info: PME EWALD COEFFICIENT       0.348832
Info: PME INTERPOLATION ORDER     4
Info: PME GRID DIMENSIONS         40 36 36
Info: PME MAXIMUM GRID SPACING    1
Info: FULL ELECTROSTATIC EVALUATION FREQUENCY      2
Info: USING VERLET I (r-RESPA) MTS SCHEME.
Info: C1 SPLITTING OF LONG RANGE ELECTROSTATICS
Info: PLACING ATOMS IN PATCHES BY HYDROGEN GROUPS
Info: RIGID BONDS TO HYDROGEN : ALL
Info:         ERROR TOLERANCE : 1e-08
Info:          MAX ITERATIONS : 100
Info: RIGID WATER USING SETTLE ALGORITHM
Info: RANDOM NUMBER SEED     1744764695
Info: USE HYDROGEN BONDS?    NO
Info: Using AMBER format force field!
Info: AMBER PARM FILE        mobley_2294995.prmtop
Info: COORDINATE PDB         mobley_2294995.pdb
Info: Exclusions will be read from PARM file!
Info: SCNB (VDW SCALING)     2
Info: USING ARITHMETIC MEAN TO COMBINE L-J SIGMA PARAMETERS
Info: BINARY COORDINATES     mobley_2294995_min.coor
Info: SUMMARY OF PARAMETERS:
Info: 9 BONDS
Info: 10 ANGLES
Info:   10 HARMONIC
Info:   0 COSINE-BASED
Info: 9 DIHEDRAL
Info: 0 IMPROPER
Info: 0 CROSSTERM
Info: 0 VDW
Info: 45 VDW_PAIRS
Info: 0 NBTHOLE_PAIRS
Info: STRUCTURE SUMMARY:
Info: 2960 ATOMS
Info: 2959 BONDS
Info: 16 ANGLES
Info: 20 DIHEDRALS
Info: 0 IMPROPERS
Info: 0 CROSSTERMS
Info: 2989 EXCLUSIONS
Info: 11 FIXED ATOMS
Info: 2955 RIGID BONDS
Info: 6 RIGID BONDS BETWEEN FIXED ATOMS
Info: 5898 DEGREES OF FREEDOM
Info: 988 HYDROGEN GROUPS
Info: 4 ATOMS IN LARGEST HYDROGEN GROUP
Info: 988 MIGRATION GROUPS
Info: 4 ATOMS IN LARGEST MIGRATION GROUP
Info: 5 HYDROGEN GROUPS WITH ALL ATOMS FIXED
Info: TOTAL MASS = 17783.8 amu
Info: TOTAL CHARGE = 0.000200029 e
Info: MASS DENSITY = 0.669356 g/cm^3
Info: ATOM DENSITY = 0.0670911 atoms/A^3
Info: ADDED 0 IMPLICIT EXCLUSIONS
Info: NONBONDED TABLE R-SQUARED SPACING: 0.0625
Info: NONBONDED TABLE SIZE: 705 POINTS
Info: REMOVING COM VELOCITY -0.15619 -0.00282071 -0.0694121
TCL: Running for 100000 steps
ETITLE: TS BOND ANGLE DIHED IMPRP ELECT VDW BOUNDARY MISC KINETIC TOTAL TEMP POTENTIAL TOTAL3 TEMPAVG PRESSURE GPRESSURE VOLUME PRESSAVG GPRESSAVG
ENERGY: 0 0.0000 0.0000 0.0000 0.0000 -13682.8025 2367.7125 0.0000 0.0000 1713.9313 -9601.1586 292.4685 -11315.0899 -9600.8189 292.4685 122.1557 159.3420 44119.0838 122.1557 159.3420
ENERGY: 100000 0.0000 0.0000 0.0000 0.0000 -14243.2204 2463.4873 0.0000 0.0000 176.1709 -11603.5622 30.0621 -11779.7331 -11603.0557 30.8992 -107.8667 -70.0548 29837.1068 4.1029 4.0444
TCL: Running 100000 steps at 60 kelvin.
TCL: Setting parameter langevinTemp to 60
TCL: Running for 100000 steps
ETITLE: TS BOND ANGLE DIHED IMPRP ELECT VDW BOUNDARY MISC KINETIC TOTAL TEMP POTENTIAL TOTAL3 TEMPAVG PRESSURE GPRESSURE VOLUME PRESSAVG GPRESSAVG
ENERGY: 100000 0.0000 0.0000 0.0000 0.0000 -14243.2204 2463.4873 0.0000 0.0000 176.0810 -11603.6521 30.0468 -11779.7331 -11603.3241 30.0468 -124.3015 -69.8853 29837.1068 -124.3015 -69.8853
ENERGY: 200000 0.0000 0.0000 0.0000 0.0000 -14258.0705 2485.8518 0.0000 0.0000 345.0534 -11427.1653 58.8806 -11772.2187 -11426.1709 59.9441 342.7268 394.3724 29131.2710 4.8944 4.8505
TCL: Running 100000 steps at 90 kelvin.
TCL: Setting parameter langevinTemp to 90
TCL: Running for 100000 steps
ETITLE: TS BOND ANGLE DIHED IMPRP ELECT VDW BOUNDARY MISC KINETIC TOTAL TEMP POTENTIAL TOTAL3 TEMPAVG PRESSURE GPRESSURE VOLUME PRESSAVG GPRESSAVG
ENERGY: 200000 0.0000 0.0000 0.0000 0.0000 -14258.0705 2485.8518 0.0000 0.0000 344.8767 -11427.3420 58.8504 -11772.2187 -11426.7148 58.8504 338.4026 394.2711 29131.2710 338.4026 394.2711
ENERGY: 300000 0.0000 0.0000 0.0000 0.0000 -14020.8354 2353.1579 0.0000 0.0000 522.5555 -11145.1220 89.1698 -11667.6774 -11144.5214 89.9180 -253.3064 -205.8703 29058.7362 5.6562 5.6444
TCL: Running 100000 steps at 120 kelvin.
TCL: Setting parameter langevinTemp to 120
TCL: Running for 100000 steps
ETITLE: TS BOND ANGLE DIHED IMPRP ELECT VDW BOUNDARY MISC KINETIC TOTAL TEMP POTENTIAL TOTAL3 TEMPAVG PRESSURE GPRESSURE VOLUME PRESSAVG GPRESSAVG
ENERGY: 300000 0.0000 0.0000 0.0000 0.0000 -14020.8354 2353.1579 0.0000 0.0000 522.2841 -11145.3934 89.1235 -11667.6774 -11144.3343 89.1235 -261.7494 -206.8400 29058.7362 -261.7494 -206.8400
ENERGY: 400000 0.0000 0.0000 0.0000 0.0000 -13889.1018 2322.8556 0.0000 0.0000 704.0343 -10862.2119 120.1377 -11566.2462 -10860.0067 119.9831 -87.7995 -11.7138 28794.5218 4.0870 4.0868
TCL: Running 100000 steps at 150 kelvin.
TCL: Setting parameter langevinTemp to 150
TCL: Running for 100000 steps
ETITLE: TS BOND ANGLE DIHED IMPRP ELECT VDW BOUNDARY MISC KINETIC TOTAL TEMP POTENTIAL TOTAL3 TEMPAVG PRESSURE GPRESSURE VOLUME PRESSAVG GPRESSAVG
ENERGY: 400000 0.0000 0.0000 0.0000 0.0000 -13889.1018 2322.8556 0.0000 0.0000 703.6736 -10862.5726 120.0762 -11566.2462 -10860.9859 120.0762 -86.8491 -10.9583 28794.5218 -86.8491 -10.9583
ENERGY: 500000 0.0000 0.0000 0.0000 0.0000 -13702.8483 2340.8713 0.0000 0.0000 870.0722 -10491.9049 148.4707 -11361.9770 -10489.8492 150.0012 806.4703 816.2502 28779.9306 4.9077 4.8700
TCL: Running 100000 steps at 180 kelvin.
TCL: Setting parameter langevinTemp to 180
TCL: Running for 100000 steps
ETITLE: TS BOND ANGLE DIHED IMPRP ELECT VDW BOUNDARY MISC KINETIC TOTAL TEMP POTENTIAL TOTAL3 TEMPAVG PRESSURE GPRESSURE VOLUME PRESSAVG GPRESSAVG
ENERGY: 500000 0.0000 0.0000 0.0000 0.0000 -13702.8483 2340.8713 0.0000 0.0000 869.6416 -10492.3354 148.3973 -11361.9770 -10491.0738 148.3973 777.4564 815.9111 28779.9306 777.4564 815.9111
ENERGY: 600000 0.0000 0.0000 0.0000 0.0000 -13263.4118 2140.0338 0.0000 0.0000 1053.9088 -10069.4692 179.8410 -11123.3780 -10066.8088 179.9639 79.8654 155.7465 28835.5760 3.7801 3.8707
TCL: Running 100000 steps at 210 kelvin.
TCL: Setting parameter langevinTemp to 210
TCL: Running for 100000 steps
ETITLE: TS BOND ANGLE DIHED IMPRP ELECT VDW BOUNDARY MISC KINETIC TOTAL TEMP POTENTIAL TOTAL3 TEMPAVG PRESSURE GPRESSURE VOLUME PRESSAVG GPRESSAVG
ENERGY: 600000 0.0000 0.0000 0.0000 0.0000 -13263.4118 2140.0338 0.0000 0.0000 1053.3763 -10070.0017 179.7501 -11123.3780 -10067.7378 179.7501 88.4725 155.6737 28835.5760 88.4725 155.6737
ENERGY: 700000 0.0000 0.0000 0.0000 0.0000 -12459.8692 1823.1293 0.0000 0.0000 1224.2149 -9412.5251 208.9023 -10636.7400 -9409.0467 209.8383 -915.6623 -855.1950 29130.3612 2.9565 2.9301
TCL: Running 100000 steps at 240 kelvin.
TCL: Setting parameter langevinTemp to 240
TCL: Running for 100000 steps
ETITLE: TS BOND ANGLE DIHED IMPRP ELECT VDW BOUNDARY MISC KINETIC TOTAL TEMP POTENTIAL TOTAL3 TEMPAVG PRESSURE GPRESSURE VOLUME PRESSAVG GPRESSAVG
ENERGY: 700000 0.0000 0.0000 0.0000 0.0000 -12459.8692 1823.1293 0.0000 0.0000 1223.6179 -9413.1221 208.8005 -10636.7400 -9410.8245 208.8005 -926.5189 -855.1309 29130.3612 -926.5189 -855.1309
ENERGY: 800000 0.0000 0.0000 0.0000 0.0000 -12056.5520 1816.7982 0.0000 0.0000 1401.4214 -8838.3325 239.1412 -10239.7538 -8835.6241 240.0847 756.4361 831.5410 28657.2335 3.6341 3.5112
TCL: Running 100000 steps at 270 kelvin.
TCL: Setting parameter langevinTemp to 270
TCL: Running for 100000 steps
ETITLE: TS BOND ANGLE DIHED IMPRP ELECT VDW BOUNDARY MISC KINETIC TOTAL TEMP POTENTIAL TOTAL3 TEMPAVG PRESSURE GPRESSURE VOLUME PRESSAVG GPRESSAVG
ENERGY: 800000 0.0000 0.0000 0.0000 0.0000 -12056.5520 1816.7982 0.0000 0.0000 1400.7287 -8839.0251 239.0230 -10239.7538 -8836.7341 239.0230 751.5007 829.9526 28657.2335 751.5007 829.9526
ENERGY: 900000 0.0000 0.0000 0.0000 0.0000 -11228.4956 1501.3831 0.0000 0.0000 1650.6349 -8076.4776 281.6674 -9727.1125 -8073.8824 269.3938 -320.9787 -243.1657 29412.3156 4.6022 4.4372
TCL: Running 1000000 steps at 300 kelvin.
TCL: Setting parameter langevinTemp to 300
TCL: Running for 1000000 steps
ETITLE: TS BOND ANGLE DIHED IMPRP ELECT VDW BOUNDARY MISC KINETIC TOTAL TEMP POTENTIAL TOTAL3 TEMPAVG PRESSURE GPRESSURE VOLUME PRESSAVG GPRESSAVG
ENERGY: 900000 0.0000 0.0000 0.0000 0.0000 -11228.4956 1501.3831 0.0000 0.0000 1649.8231 -8077.2894 281.5289 -9727.1125 -8075.2996 281.5289 -328.8729 -244.4433 29412.3156 -328.8729 -244.4433
ENERGY: 1100000 0.0000 0.0000 0.0000 0.0000 -10710.9199 1338.0575 0.0000 0.0000 1803.0886 -7569.7738 307.6824 -9372.8624 -7570.5072 300.1384 -890.1961 -835.6256 30742.8268 2.7834 2.8896
ENERGY: 1300000 0.0000 0.0000 0.0000 0.0000 -10803.7331 1446.0386 0.0000 0.0000 1768.9344 -7588.7601 301.8543 -9357.6945 -7584.2206 300.6401 -176.7151 -46.6093 30760.0619 2.1953 2.1301
ENERGY: 1500000 0.0000 0.0000 0.0000 0.0000 -10718.5255 1420.8756 0.0000 0.0000 1778.4576 -7519.1923 303.4793 -9297.6498 -7514.2777 300.2224 133.0596 235.7819 30044.8543 3.8354 3.8433
ENERGY: 1700000 0.0000 0.0000 0.0000 0.0000 -10755.1333 1403.9745 0.0000 0.0000 1731.0425 -7620.1163 295.3883 -9351.1588 -7617.4573 300.1142 -448.0695 -354.9547 30673.0954 4.1703 4.2440
ENERGY: 1900000 0.0000 0.0000 0.0000 0.0000 -10687.0643 1377.8052 0.0000 0.0000 1782.7038 -7526.5553 304.2039 -9309.2592 -7526.4050 301.5668 -599.4457 -430.5336 30987.4574 3.3328 3.3484
TCL: Exiting due to exit command.
