Info: SIMULATION PARAMETERS:
Info: TIMESTEP               2
Info: NUMBER OF STEPS        0
Info: STEPS PER CYCLE        10
Info: PERIODIC CELL BASIS 1  37.968 0 0
Info: PERIODIC CELL BASIS 2  0 33.404 0
Info: PERIODIC CELL BASIS 3  0 0 34.933
Info: PERIODIC CELL CENTER   0 0 0
Info: WRAPPING WATERS AROUND PERIODIC BOUNDARIES ON OUTPUT.
Info: WRAPPING ALL CLUSTERS AROUND PERIODIC BOUNDARIES ON OUTPUT.
Info: FIRST LDB TIMESTEP     50
Info: LAST LDB TIMESTEP     -1
Info: HOM BACKGROUND SCALING 1
Info: PME BACKGROUND SCALING 1
Info: MIN ATOMS PER PATCH    40
Info: EMPTY PATCH LOAD       40 ATOMS
Info: INITIAL TEMPERATURE    300
Info: CENTER OF MASS MOVING INITIALLY? NO
Info: DIELECTRIC             1
Info: EXCLUDE                SCALED ONE-FOUR
Info: 1-4 ELECTROSTATICS SCALED BY 0.833333
Info: MODIFIED 1-4 VDW PARAMETERS WILL BE USED
Info: DCD FILENAME           mobley_4188615_equil.dcd
Info: DCD FREQUENCY          100000
Info: DCD FIRST STEP         100000
Info: DCD FILE WILL CONTAIN UNIT CELL DATA
Info: XST FILENAME           mobley_4188615_equil.xst
Info: XST FREQUENCY          100000
Info: NO VELOCITY DCD OUTPUT
Info: NO FORCE DCD OUTPUT
Info: OUTPUT FILENAME        mobley_4188615_equil
Info: BINARY OUTPUT FILES WILL BE USED
Info: RESTART FILENAME       mobley_4188615_equil.restart
Info: RESTART FREQUENCY      100000
Info: BINARY RESTART FILES WILL BE USED
Info: CUTOFF                 9
Info: PAIRLIST DISTANCE      11
Info: PAIRLIST SHRINK RATE   0.01
Info: PAIRLIST GROW RATE     0.01
Info: PAIRLIST TRIGGER       0.3
Info: PAIRLISTS PER CYCLE    2
Info: PAIRLISTS ENABLED
Info: MARGIN                 8
Info: HYDROGEN GROUP CUTOFF  2.5
Info: PATCH DIMENSION        21.5
Info: ENERGY OUTPUT STEPS    100000
Info: ENERGY EVALUATION STEPS    100000
Info: OUTPUT ENERGY PRECISION 4
Info: CROSSTERM ENERGY INCLUDED IN DIHEDRAL
Info: TIMING OUTPUT STEPS    1000000
Info: PRESSURE OUTPUT STEPS  100000
Info: FIXED ATOMS ACTIVE
Info: LANGEVIN DYNAMICS ACTIVE
Info: LANGEVIN TEMPERATURE   30
Info: LANGEVIN USING BBK INTEGRATOR
Info: LANGEVIN DAMPING COEFFICIENT IS 1 INVERSE PS
Info: LANGEVIN DYNAMICS APPLIED TO HYDROGENS
Info: LANGEVIN PISTON PRESSURE CONTROL ACTIVE
Info:        TARGET PRESSURE IS 1.01325 BAR
Info:     OSCILLATION PERIOD IS 50 FS
Info:             DECAY TIME IS 25 FS
Info:     PISTON TEMPERATURE IS 300 K
Info:       PRESSURE CONTROL IS GROUP-BASED
Info:    INITIAL STRAIN RATE IS 0 0 0
Info:       CELL FLUCTUATION IS ISOTROPIC
Info: PARTICLE MESH EWALD (PME) ACTIVE
Info: PME TOLERANCE               1e-06
Info: PME EWALD COEFFICIENT       0.348832
Info: PME INTERPOLATION ORDER     4
Info: PME GRID DIMENSIONS         40 36 36
Info: PME MAXIMUM GRID SPACING    1
Info: FULL ELECTROSTATIC EVALUATION FREQUENCY      2
Info: USING VERLET I (r-RESPA) MTS SCHEME.
Info: C1 SPLITTING OF LONG RANGE ELECTROSTATICS
Info: PLACING ATOMS IN PATCHES BY HYDROGEN GROUPS
Info: RIGID BONDS TO HYDROGEN : ALL
Info:         ERROR TOLERANCE : 1e-08
Info:          MAX ITERATIONS : 100
Info: RIGID WATER USING SETTLE ALGORITHM
Info: RANDOM NUMBER SEED     1744726131
Info: USE HYDROGEN BONDS?    NO
Info: Using AMBER format force field!
Info: AMBER PARM FILE        mobley_4188615.prmtop
Info: COORDINATE PDB         mobley_4188615.pdb
Info: Exclusions will be read from PARM file!
Info: SCNB (VDW SCALING)     2
Info: USING ARITHMETIC MEAN TO COMBINE L-J SIGMA PARAMETERS
Info: BINARY COORDINATES     mobley_4188615_min.coor
Info: SUMMARY OF PARAMETERS:
Info: 9 BONDS
Info: 10 ANGLES
Info:   10 HARMONIC
Info:   0 COSINE-BASED
Info: 6 DIHEDRAL
Info: 0 IMPROPER
Info: 0 CROSSTERM
Info: 0 VDW
Info: 36 VDW_PAIRS
Info: 0 NBTHOLE_PAIRS
Info: STRUCTURE SUMMARY:
Info: 2989 ATOMS
Info: 2989 BONDS
Info: 36 ANGLES
Info: 52 DIHEDRALS
Info: 0 IMPROPERS
Info: 0 CROSSTERMS
Info: 3066 EXCLUSIONS
Info: 22 FIXED ATOMS
Info: 2978 RIGID BONDS
Info: 11 RIGID BONDS BETWEEN FIXED ATOMS
Info: 5934 DEGREES OF FREEDOM
Info: 1000 HYDROGEN GROUPS
Info: 4 ATOMS IN LARGEST HYDROGEN GROUP
Info: 1000 MIGRATION GROUPS
Info: 4 ATOMS IN LARGEST MIGRATION GROUP
Info: 11 HYDROGEN GROUPS WITH ALL ATOMS FIXED
Info: TOTAL MASS = 17967 amu
Info: TOTAL CHARGE = 0.000400066 e
Info: MASS DENSITY = 0.673415 g/cm^3
Info: ATOM DENSITY = 0.0674643 atoms/A^3
Info: ADDED 0 IMPLICIT EXCLUSIONS
Info: NONBONDED TABLE R-SQUARED SPACING: 0.0625
Info: NONBONDED TABLE SIZE: 705 POINTS
Info: REMOVING COM VELOCITY -0.0428788 -0.128308 0.037654
TCL: Running for 100000 steps
ETITLE: TS BOND ANGLE DIHED IMPRP ELECT VDW BOUNDARY MISC KINETIC TOTAL TEMP POTENTIAL TOTAL3 TEMPAVG PRESSURE GPRESSURE VOLUME PRESSAVG GPRESSAVG
ENERGY: 0 0.0000 0.0000 0.0000 0.0000 -13810.4349 2419.9811 0.0000 0.0000 1744.8843 -9645.5694 295.9440 -11390.4538 -9645.2587 295.9440 373.8457 407.7903 44304.9326 373.8457 407.7903
ENERGY: 100000 0.0000 0.0000 0.0000 0.0000 -14481.1682 2570.7791 0.0000 0.0000 175.0395 -11735.3496 29.6879 -11910.3891 -11734.7804 30.8692 469.1228 501.3463 29906.9551 4.5092 4.4773
TCL: Running 100000 steps at 60 kelvin.
TCL: Setting parameter langevinTemp to 60
TCL: Running for 100000 steps
ETITLE: TS BOND ANGLE DIHED IMPRP ELECT VDW BOUNDARY MISC KINETIC TOTAL TEMP POTENTIAL TOTAL3 TEMPAVG PRESSURE GPRESSURE VOLUME PRESSAVG GPRESSAVG
ENERGY: 100000 0.0000 0.0000 0.0000 0.0000 -14481.1682 2570.7791 0.0000 0.0000 174.9516 -11735.4375 29.6730 -11910.3891 -11735.0597 29.6730 460.5776 501.4790 29906.9551 460.5776 501.4790
ENERGY: 200000 0.0000 0.0000 0.0000 0.0000 -14478.6177 2579.6125 0.0000 0.0000 351.6687 -11547.3366 59.6453 -11899.0053 -11546.5616 59.9262 1115.8720 1202.4785 28847.4601 3.5353 3.6241
TCL: Running 100000 steps at 90 kelvin.
TCL: Setting parameter langevinTemp to 90
TCL: Running for 100000 steps
ETITLE: TS BOND ANGLE DIHED IMPRP ELECT VDW BOUNDARY MISC KINETIC TOTAL TEMP POTENTIAL TOTAL3 TEMPAVG PRESSURE GPRESSURE VOLUME PRESSAVG GPRESSAVG
ENERGY: 200000 0.0000 0.0000 0.0000 0.0000 -14478.6177 2579.6125 0.0000 0.0000 351.4841 -11547.5212 59.6140 -11899.0053 -11546.8883 59.6140 1147.0800 1202.1899 28847.4601 1147.0800 1202.1899
ENERGY: 300000 0.0000 0.0000 0.0000 0.0000 -14138.4957 2347.6048 0.0000 0.0000 523.5511 -11267.3397 88.7977 -11790.8909 -11266.4518 89.9107 -598.3379 -513.2817 29435.2309 3.7877 3.6889
TCL: Running 100000 steps at 120 kelvin.
TCL: Setting parameter langevinTemp to 120
TCL: Running for 100000 steps
ETITLE: TS BOND ANGLE DIHED IMPRP ELECT VDW BOUNDARY MISC KINETIC TOTAL TEMP POTENTIAL TOTAL3 TEMPAVG PRESSURE GPRESSURE VOLUME PRESSAVG GPRESSAVG
ENERGY: 300000 0.0000 0.0000 0.0000 0.0000 -14138.4957 2347.6048 0.0000 0.0000 523.2838 -11267.6071 88.7524 -11790.8909 -11266.5507 88.7524 -564.6256 -513.5272 29435.2309 -564.6256 -513.5272
ENERGY: 400000 0.0000 0.0000 0.0000 0.0000 -14032.8840 2368.5772 0.0000 0.0000 722.9747 -10941.3320 122.6213 -11664.3068 -10939.5119 119.6531 140.0000 179.7007 29209.6526 3.6805 3.5630
TCL: Running 100000 steps at 150 kelvin.
TCL: Setting parameter langevinTemp to 150
TCL: Running for 100000 steps
ETITLE: TS BOND ANGLE DIHED IMPRP ELECT VDW BOUNDARY MISC KINETIC TOTAL TEMP POTENTIAL TOTAL3 TEMPAVG PRESSURE GPRESSURE VOLUME PRESSAVG GPRESSAVG
ENERGY: 400000 0.0000 0.0000 0.0000 0.0000 -14032.8840 2368.5772 0.0000 0.0000 722.6295 -10941.6773 122.5628 -11664.3068 -10940.3532 122.5628 124.6364 179.8135 29209.6526 124.6364 179.8135
ENERGY: 500000 0.0000 0.0000 0.0000 0.0000 -13692.0579 2221.2297 0.0000 0.0000 902.7239 -10568.1042 153.1080 -11470.8282 -10564.7175 149.7960 -504.8072 -422.9798 29508.5436 2.9100 2.8656
TCL: Running 100000 steps at 180 kelvin.
TCL: Setting parameter langevinTemp to 180
TCL: Running for 100000 steps
ETITLE: TS BOND ANGLE DIHED IMPRP ELECT VDW BOUNDARY MISC KINETIC TOTAL TEMP POTENTIAL TOTAL3 TEMPAVG PRESSURE GPRESSURE VOLUME PRESSAVG GPRESSAVG
ENERGY: 500000 0.0000 0.0000 0.0000 0.0000 -13692.0579 2221.2297 0.0000 0.0000 902.2830 -10568.5451 153.0332 -11470.8282 -10566.8566 153.0332 -481.1098 -422.4597 29508.5436 -481.1098 -422.4597
ENERGY: 600000 0.0000 0.0000 0.0000 0.0000 -13221.7738 2094.6817 0.0000 0.0000 1093.0536 -10034.0385 185.3891 -11127.0920 -10031.7073 180.0402 44.8424 111.5546 29042.2422 4.8663 4.6672
TCL: Running 100000 steps at 210 kelvin.
TCL: Setting parameter langevinTemp to 210
TCL: Running for 100000 steps
ETITLE: TS BOND ANGLE DIHED IMPRP ELECT VDW BOUNDARY MISC KINETIC TOTAL TEMP POTENTIAL TOTAL3 TEMPAVG PRESSURE GPRESSURE VOLUME PRESSAVG GPRESSAVG
ENERGY: 600000 0.0000 0.0000 0.0000 0.0000 -13221.7738 2094.6817 0.0000 0.0000 1092.5138 -10034.5782 185.2976 -11127.0920 -10032.5865 185.2976 33.5551 110.6055 29042.2422 33.5551 110.6055
ENERGY: 700000 0.0000 0.0000 0.0000 0.0000 -12644.3318 1928.3183 0.0000 0.0000 1275.5450 -9440.4684 216.3409 -10716.0134 -9437.6810 209.8433 21.4401 114.2031 29360.1254 4.0987 3.8822
TCL: Running 100000 steps at 240 kelvin.
TCL: Setting parameter langevinTemp to 240
TCL: Running for 100000 steps
ETITLE: TS BOND ANGLE DIHED IMPRP ELECT VDW BOUNDARY MISC KINETIC TOTAL TEMP POTENTIAL TOTAL3 TEMPAVG PRESSURE GPRESSURE VOLUME PRESSAVG GPRESSAVG
ENERGY: 700000 0.0000 0.0000 0.0000 0.0000 -12644.3318 1928.3183 0.0000 0.0000 1274.9514 -9441.0621 216.2402 -10716.0134 -9439.1734 216.2402 29.1728 114.6421 29360.1254 29.1728 114.6421
ENERGY: 800000 0.0000 0.0000 0.0000 0.0000 -12026.9194 1733.0071 0.0000 0.0000 1444.8634 -8849.0489 245.0584 -10293.9123 -8845.5132 239.7811 -219.6520 -102.4798 29687.4381 4.2417 4.0716
TCL: Running 100000 steps at 270 kelvin.
TCL: Setting parameter langevinTemp to 270
TCL: Running for 100000 steps
ETITLE: TS BOND ANGLE DIHED IMPRP ELECT VDW BOUNDARY MISC KINETIC TOTAL TEMP POTENTIAL TOTAL3 TEMPAVG PRESSURE GPRESSURE VOLUME PRESSAVG GPRESSAVG
ENERGY: 800000 0.0000 0.0000 0.0000 0.0000 -12026.9194 1733.0071 0.0000 0.0000 1444.1718 -8849.7405 244.9411 -10293.9123 -8847.0623 244.9411 -176.5653 -102.2856 29687.4381 -176.5653 -102.2856
ENERGY: 900000 0.0000 0.0000 0.0000 0.0000 -11454.9210 1528.0992 0.0000 0.0000 1614.8917 -8311.9302 273.8963 -9926.8219 -8309.0030 269.8013 -633.9902 -607.4908 30040.3025 1.8114 1.7641
TCL: Running 1000000 steps at 300 kelvin.
TCL: Setting parameter langevinTemp to 300
TCL: Running for 1000000 steps
ETITLE: TS BOND ANGLE DIHED IMPRP ELECT VDW BOUNDARY MISC KINETIC TOTAL TEMP POTENTIAL TOTAL3 TEMPAVG PRESSURE GPRESSURE VOLUME PRESSAVG GPRESSAVG
ENERGY: 900000 0.0000 0.0000 0.0000 0.0000 -11454.9210 1528.0992 0.0000 0.0000 1614.1174 -8312.7045 273.7650 -9926.8219 -8309.8530 273.7650 -687.3503 -608.8701 30040.3025 -687.3503 -608.8701
ENERGY: 1100000 0.0000 0.0000 0.0000 0.0000 -10861.4286 1410.2440 0.0000 0.0000 1755.6345 -7695.5501 297.7673 -9451.1846 -7691.3281 299.8347 -310.3676 -198.0914 30682.0570 2.6901 2.8139
ENERGY: 1300000 0.0000 0.0000 0.0000 0.0000 -11004.5406 1488.9533 0.0000 0.0000 1799.4426 -7716.1447 305.1974 -9515.5873 -7710.6239 300.7995 316.7312 288.3854 30798.7028 3.4892 3.3484
ENERGY: 1500000 0.0000 0.0000 0.0000 0.0000 -10843.6652 1387.7220 0.0000 0.0000 1782.1341 -7673.8091 302.2618 -9455.9431 -7672.5719 300.4750 -481.8484 -369.3596 30693.4507 2.7242 2.6098
ENERGY: 1700000 0.0000 0.0000 0.0000 0.0000 -10917.2943 1480.7755 0.0000 0.0000 1763.9139 -7672.6049 299.1715 -9436.5188 -7669.9514 300.3993 166.8585 189.3566 31038.0659 4.0059 3.9500
ENERGY: 1900000 0.0000 0.0000 0.0000 0.0000 -10737.9594 1365.8922 0.0000 0.0000 1808.0288 -7564.0384 306.6537 -9372.0672 -7559.1618 300.4930 -520.5163 -425.4946 31042.6397 3.9891 3.7115
TCL: Exiting due to exit command.
