Info: SIMULATION PARAMETERS:
Info: TIMESTEP               2
Info: NUMBER OF STEPS        0
Info: STEPS PER CYCLE        10
Info: PERIODIC CELL BASIS 1  39.456 0 0
Info: PERIODIC CELL BASIS 2  0 35.267 0
Info: PERIODIC CELL BASIS 3  0 0 31.561
Info: PERIODIC CELL CENTER   0 0 0
Info: WRAPPING WATERS AROUND PERIODIC BOUNDARIES ON OUTPUT.
Info: WRAPPING ALL CLUSTERS AROUND PERIODIC BOUNDARIES ON OUTPUT.
Info: FIRST LDB TIMESTEP     50
Info: LAST LDB TIMESTEP     -1
Info: HOM BACKGROUND SCALING 1
Info: PME BACKGROUND SCALING 1
Info: MIN ATOMS PER PATCH    40
Info: EMPTY PATCH LOAD       40 ATOMS
Info: INITIAL TEMPERATURE    300
Info: CENTER OF MASS MOVING INITIALLY? NO
Info: DIELECTRIC             1
Info: EXCLUDE                SCALED ONE-FOUR
Info: 1-4 ELECTROSTATICS SCALED BY 0.833333
Info: MODIFIED 1-4 VDW PARAMETERS WILL BE USED
Info: DCD FILENAME           mobley_9510785_equil.dcd
Info: DCD FREQUENCY          100000
Info: DCD FIRST STEP         100000
Info: DCD FILE WILL CONTAIN UNIT CELL DATA
Info: XST FILENAME           mobley_9510785_equil.xst
Info: XST FREQUENCY          100000
Info: NO VELOCITY DCD OUTPUT
Info: NO FORCE DCD OUTPUT
Info: OUTPUT FILENAME        mobley_9510785_equil
Info: BINARY OUTPUT FILES WILL BE USED
Info: RESTART FILENAME       mobley_9510785_equil.restart
Info: RESTART FREQUENCY      100000
Info: BINARY RESTART FILES WILL BE USED
Info: CUTOFF                 9
Info: PAIRLIST DISTANCE      11
Info: PAIRLIST SHRINK RATE   0.01
Info: PAIRLIST GROW RATE     0.01
Info: PAIRLIST TRIGGER       0.3
Info: PAIRLISTS PER CYCLE    2
Info: PAIRLISTS ENABLED
Info: MARGIN                 8
Info: HYDROGEN GROUP CUTOFF  2.5
Info: PATCH DIMENSION        21.5
Info: ENERGY OUTPUT STEPS    100000
Info: ENERGY EVALUATION STEPS    100000
Info: OUTPUT ENERGY PRECISION 4
Info: CROSSTERM ENERGY INCLUDED IN DIHEDRAL
Info: TIMING OUTPUT STEPS    1000000
Info: PRESSURE OUTPUT STEPS  100000
Info: FIXED ATOMS ACTIVE
Info: LANGEVIN DYNAMICS ACTIVE
Info: LANGEVIN TEMPERATURE   30
Info: LANGEVIN USING BBK INTEGRATOR
Info: LANGEVIN DAMPING COEFFICIENT IS 1 INVERSE PS
Info: LANGEVIN DYNAMICS APPLIED TO HYDROGENS
Info: LANGEVIN PISTON PRESSURE CONTROL ACTIVE
Info:        TARGET PRESSURE IS 1.01325 BAR
Info:     OSCILLATION PERIOD IS 50 FS
Info:             DECAY TIME IS 25 FS
Info:     PISTON TEMPERATURE IS 300 K
Info:       PRESSURE CONTROL IS GROUP-BASED
Info:    INITIAL STRAIN RATE IS 0 0 0
Info:       CELL FLUCTUATION IS ISOTROPIC
Info: PARTICLE MESH EWALD (PME) ACTIVE
Info: PME TOLERANCE               1e-06
Info: PME EWALD COEFFICIENT       0.348832
Info: PME INTERPOLATION ORDER     4
Info: PME GRID DIMENSIONS         40 36 32
Info: PME MAXIMUM GRID SPACING    1
Info: FULL ELECTROSTATIC EVALUATION FREQUENCY      2
Info: USING VERLET I (r-RESPA) MTS SCHEME.
Info: C1 SPLITTING OF LONG RANGE ELECTROSTATICS
Info: PLACING ATOMS IN PATCHES BY HYDROGEN GROUPS
Info: RIGID BONDS TO HYDROGEN : ALL
Info:         ERROR TOLERANCE : 1e-08
Info:          MAX ITERATIONS : 100
Info: RIGID WATER USING SETTLE ALGORITHM
Info: RANDOM NUMBER SEED     1744726548
Info: USE HYDROGEN BONDS?    NO
Info: Using AMBER format force field!
Info: AMBER PARM FILE        mobley_9510785.prmtop
Info: COORDINATE PDB         mobley_9510785.pdb
Info: Exclusions will be read from PARM file!
Info: SCNB (VDW SCALING)     2
Info: USING ARITHMETIC MEAN TO COMBINE L-J SIGMA PARAMETERS
Info: BINARY COORDINATES     mobley_9510785_min.coor
Info: SUMMARY OF PARAMETERS:
Info: 7 BONDS
Info: 8 ANGLES
Info:   8 HARMONIC
Info:   0 COSINE-BASED
Info: 3 DIHEDRAL
Info: 0 IMPROPER
Info: 0 CROSSTERM
Info: 0 VDW
Info: 15 VDW_PAIRS
Info: 0 NBTHOLE_PAIRS
Info: STRUCTURE SUMMARY:
Info: 2989 ATOMS
Info: 2990 BONDS
Info: 36 ANGLES
Info: 64 DIHEDRALS
Info: 0 IMPROPERS
Info: 0 CROSSTERMS
Info: 3072 EXCLUSIONS
Info: 22 FIXED ATOMS
Info: 2973 RIGID BONDS
Info: 6 RIGID BONDS BETWEEN FIXED ATOMS
Info: 5934 DEGREES OF FREEDOM
Info: 1005 HYDROGEN GROUPS
Info: 3 ATOMS IN LARGEST HYDROGEN GROUP
Info: 1005 MIGRATION GROUPS
Info: 3 ATOMS IN LARGEST MIGRATION GROUP
Info: 16 HYDROGEN GROUPS WITH ALL ATOMS FIXED
Info: TOTAL MASS = 18109.8 amu
Info: TOTAL CHARGE = 5.02914e-08 e
Info: MASS DENSITY = 0.684763 g/cm^3
Info: ATOM DENSITY = 0.0680603 atoms/A^3
Info: ADDED 0 IMPLICIT EXCLUSIONS
Info: NONBONDED TABLE R-SQUARED SPACING: 0.0625
Info: NONBONDED TABLE SIZE: 705 POINTS
Info: REMOVING COM VELOCITY 0.0783529 0.041023 0.0066931
TCL: Running for 100000 steps
ETITLE: TS BOND ANGLE DIHED IMPRP ELECT VDW BOUNDARY MISC KINETIC TOTAL TEMP POTENTIAL TOTAL3 TEMPAVG PRESSURE GPRESSURE VOLUME PRESSAVG GPRESSAVG
ENERGY: 0 0.0000 0.0000 0.0000 0.0000 -13820.0096 2378.8860 0.0000 0.0000 1774.8163 -9666.3073 301.0206 -11441.1236 -9665.9597 301.0206 61.7237 92.8394 43916.9659 61.7237 92.8394
ENERGY: 100000 0.0000 0.0000 0.0000 0.0000 -14360.3807 2514.5118 0.0000 0.0000 181.0854 -11664.7836 30.7133 -11845.8689 -11664.3434 30.8703 126.0750 162.4296 29960.9793 4.6017 4.6283
TCL: Running 100000 steps at 60 kelvin.
TCL: Setting parameter langevinTemp to 60
TCL: Running for 100000 steps
ETITLE: TS BOND ANGLE DIHED IMPRP ELECT VDW BOUNDARY MISC KINETIC TOTAL TEMP POTENTIAL TOTAL3 TEMPAVG PRESSURE GPRESSURE VOLUME PRESSAVG GPRESSAVG
ENERGY: 100000 0.0000 0.0000 0.0000 0.0000 -14360.3807 2514.5118 0.0000 0.0000 181.0010 -11664.8680 30.6990 -11845.8690 -11664.4508 30.6990 106.0115 162.5195 29960.9793 106.0115 162.5195
ENERGY: 200000 0.0000 0.0000 0.0000 0.0000 -14184.3338 2431.4358 0.0000 0.0000 348.9447 -11403.9533 59.1833 -11752.8980 -11403.3051 60.0358 -238.9970 -178.5709 29846.6805 3.0548 3.0564
TCL: Running 100000 steps at 90 kelvin.
TCL: Setting parameter langevinTemp to 90
TCL: Running for 100000 steps
ETITLE: TS BOND ANGLE DIHED IMPRP ELECT VDW BOUNDARY MISC KINETIC TOTAL TEMP POTENTIAL TOTAL3 TEMPAVG PRESSURE GPRESSURE VOLUME PRESSAVG GPRESSAVG
ENERGY: 200000 0.0000 0.0000 0.0000 0.0000 -14184.3338 2431.4358 0.0000 0.0000 348.7657 -11404.1322 59.1530 -11752.8980 -11403.4317 59.1530 -235.3589 -178.4341 29846.6805 -235.3589 -178.4341
ENERGY: 300000 0.0000 0.0000 0.0000 0.0000 -14097.0716 2409.3085 0.0000 0.0000 548.7879 -11138.9752 93.0781 -11687.7631 -11137.8812 89.9071 40.8300 74.3460 29604.8578 4.7343 4.7114
TCL: Running 100000 steps at 120 kelvin.
TCL: Setting parameter langevinTemp to 120
TCL: Running for 100000 steps
ETITLE: TS BOND ANGLE DIHED IMPRP ELECT VDW BOUNDARY MISC KINETIC TOTAL TEMP POTENTIAL TOTAL3 TEMPAVG PRESSURE GPRESSURE VOLUME PRESSAVG GPRESSAVG
ENERGY: 300000 0.0000 0.0000 0.0000 0.0000 -14097.0716 2409.3085 0.0000 0.0000 548.5266 -11139.2365 93.0338 -11687.7631 -11138.0826 93.0338 39.5439 74.5776 29604.8578 39.5439 74.5776
ENERGY: 400000 0.0000 0.0000 0.0000 0.0000 -14018.8137 2414.7494 0.0000 0.0000 707.4117 -10896.6527 119.9817 -11604.0643 -10893.9294 119.9806 422.7973 506.8652 29362.5677 2.2942 2.3373
TCL: Running 100000 steps at 150 kelvin.
TCL: Setting parameter langevinTemp to 150
TCL: Running for 100000 steps
ETITLE: TS BOND ANGLE DIHED IMPRP ELECT VDW BOUNDARY MISC KINETIC TOTAL TEMP POTENTIAL TOTAL3 TEMPAVG PRESSURE GPRESSURE VOLUME PRESSAVG GPRESSAVG
ENERGY: 400000 0.0000 0.0000 0.0000 0.0000 -14018.8137 2414.7494 0.0000 0.0000 707.0494 -10897.0149 119.9203 -11604.0643 -10895.2114 119.9203 454.2943 506.8466 29362.5677 454.2943 506.8466
ENERGY: 500000 0.0000 0.0000 0.0000 0.0000 -13810.6640 2403.5298 0.0000 0.0000 918.2442 -10488.8900 155.7403 -11407.1343 -10487.5870 150.1811 1040.8005 1103.8831 29368.7346 4.0596 3.9632
TCL: Running 100000 steps at 180 kelvin.
TCL: Setting parameter langevinTemp to 180
TCL: Running for 100000 steps
ETITLE: TS BOND ANGLE DIHED IMPRP ELECT VDW BOUNDARY MISC KINETIC TOTAL TEMP POTENTIAL TOTAL3 TEMPAVG PRESSURE GPRESSURE VOLUME PRESSAVG GPRESSAVG
ENERGY: 500000 0.0000 0.0000 0.0000 0.0000 -13810.6640 2403.5298 0.0000 0.0000 917.7923 -10489.3419 155.6637 -11407.1343 -10487.4966 155.6637 1044.5881 1103.2422 29368.7346 1044.5881 1103.2422
ENERGY: 600000 0.0000 0.0000 0.0000 0.0000 -13228.9883 2067.2761 0.0000 0.0000 1043.7815 -10117.9307 177.0323 -11161.7122 -10115.2435 180.1418 -879.8088 -802.0212 29870.1396 3.2915 3.3772
TCL: Running 100000 steps at 210 kelvin.
TCL: Setting parameter langevinTemp to 210
TCL: Running for 100000 steps
ETITLE: TS BOND ANGLE DIHED IMPRP ELECT VDW BOUNDARY MISC KINETIC TOTAL TEMP POTENTIAL TOTAL3 TEMPAVG PRESSURE GPRESSURE VOLUME PRESSAVG GPRESSAVG
ENERGY: 600000 0.0000 0.0000 0.0000 0.0000 -13228.9883 2067.2761 0.0000 0.0000 1043.2474 -10118.4648 176.9417 -11161.7122 -10116.1965 176.9417 -864.4428 -803.0617 29870.1396 -864.4428 -803.0617
ENERGY: 700000 0.0000 0.0000 0.0000 0.0000 -12675.6808 1987.4284 0.0000 0.0000 1258.2496 -9430.0027 213.4075 -10688.2524 -9426.2119 209.5063 547.7693 616.6716 29008.6752 3.2491 3.1567
TCL: Running 100000 steps at 240 kelvin.
TCL: Setting parameter langevinTemp to 240
TCL: Running for 100000 steps
ETITLE: TS BOND ANGLE DIHED IMPRP ELECT VDW BOUNDARY MISC KINETIC TOTAL TEMP POTENTIAL TOTAL3 TEMPAVG PRESSURE GPRESSURE VOLUME PRESSAVG GPRESSAVG
ENERGY: 700000 0.0000 0.0000 0.0000 0.0000 -12675.6808 1987.4284 0.0000 0.0000 1257.6161 -9430.6362 213.3000 -10688.2524 -9428.6139 213.3000 527.4775 617.4275 29008.6752 527.4775 617.4275
ENERGY: 800000 0.0000 0.0000 0.0000 0.0000 -11845.2119 1668.1075 0.0000 0.0000 1438.4986 -8738.6058 243.9789 -10177.1044 -8736.2686 240.0038 -229.1682 -147.1626 29228.3522 2.5979 2.5135
TCL: Running 100000 steps at 270 kelvin.
TCL: Setting parameter langevinTemp to 270
TCL: Running for 100000 steps
ETITLE: TS BOND ANGLE DIHED IMPRP ELECT VDW BOUNDARY MISC KINETIC TOTAL TEMP POTENTIAL TOTAL3 TEMPAVG PRESSURE GPRESSURE VOLUME PRESSAVG GPRESSAVG
ENERGY: 800000 0.0000 0.0000 0.0000 0.0000 -11845.2119 1668.1075 0.0000 0.0000 1437.7446 -8739.3598 243.8510 -10177.1044 -8737.0556 243.8510 -235.9653 -147.6970 29228.3522 -235.9653 -147.6970
ENERGY: 900000 0.0000 0.0000 0.0000 0.0000 -11254.8076 1524.0726 0.0000 0.0000 1600.7743 -8129.9607 271.5019 -9730.7350 -8126.7223 270.1303 -197.0507 -164.7972 30187.3942 3.6272 3.4806
TCL: Running 1000000 steps at 300 kelvin.
TCL: Setting parameter langevinTemp to 300
TCL: Running for 1000000 steps
ETITLE: TS BOND ANGLE DIHED IMPRP ELECT VDW BOUNDARY MISC KINETIC TOTAL TEMP POTENTIAL TOTAL3 TEMPAVG PRESSURE GPRESSURE VOLUME PRESSAVG GPRESSAVG
ENERGY: 900000 0.0000 0.0000 0.0000 0.0000 -11254.8076 1524.0726 0.0000 0.0000 1599.9780 -8130.7570 271.3669 -9730.7350 -8128.7463 271.3669 -249.3213 -164.1937 30187.3942 -249.3213 -164.1937
ENERGY: 1100000 0.0000 0.0000 0.0000 0.0000 -10740.3238 1488.5016 0.0000 0.0000 1728.4190 -7523.4033 293.1513 -9251.8223 -7521.1310 300.4662 831.5494 830.2068 30786.1171 4.1157 4.0295
ENERGY: 1300000 0.0000 0.0000 0.0000 0.0000 -10642.6871 1288.8345 0.0000 0.0000 1741.1860 -7612.6666 295.3167 -9353.8527 -7608.9597 299.7433 -1171.3595 -1094.9604 30955.3620 3.3945 3.3676
ENERGY: 1500000 0.0000 0.0000 0.0000 0.0000 -10780.7292 1370.5797 0.0000 0.0000 1737.0018 -7673.1477 294.6070 -9410.1495 -7668.1969 300.1574 -564.5802 -474.1592 30785.0822 3.4871 3.4716
ENERGY: 1700000 0.0000 0.0000 0.0000 0.0000 -10746.3491 1387.7273 0.0000 0.0000 1781.2730 -7577.3488 302.1157 -9358.6218 -7576.0900 299.7432 -541.3651 -477.7753 31108.2989 2.7331 2.8221
ENERGY: 1900000 0.0000 0.0000 0.0000 0.0000 -10892.3364 1524.4826 0.0000 0.0000 1767.4528 -7600.4010 299.7717 -9367.8538 -7598.2621 300.1413 861.7038 929.6130 30433.3542 2.8973 3.0050
TCL: Exiting due to exit command.
