Info: SIMULATION PARAMETERS:
Info: TIMESTEP               2
Info: NUMBER OF STEPS        0
Info: STEPS PER CYCLE        10
Info: PERIODIC CELL BASIS 1  37.968 0 0
Info: PERIODIC CELL BASIS 2  0 34.26 0
Info: PERIODIC CELL BASIS 3  0 0 33.876
Info: PERIODIC CELL CENTER   0 0 0
Info: WRAPPING WATERS AROUND PERIODIC BOUNDARIES ON OUTPUT.
Info: WRAPPING ALL CLUSTERS AROUND PERIODIC BOUNDARIES ON OUTPUT.
Info: FIRST LDB TIMESTEP     50
Info: LAST LDB TIMESTEP     -1
Info: HOM BACKGROUND SCALING 1
Info: PME BACKGROUND SCALING 1
Info: MIN ATOMS PER PATCH    40
Info: EMPTY PATCH LOAD       40 ATOMS
Info: INITIAL TEMPERATURE    300
Info: CENTER OF MASS MOVING INITIALLY? NO
Info: DIELECTRIC             1
Info: EXCLUDE                SCALED ONE-FOUR
Info: 1-4 ELECTROSTATICS SCALED BY 0.833333
Info: MODIFIED 1-4 VDW PARAMETERS WILL BE USED
Info: DCD FILENAME           mobley_7676709_equil.dcd
Info: DCD FREQUENCY          100000
Info: DCD FIRST STEP         100000
Info: DCD FILE WILL CONTAIN UNIT CELL DATA
Info: XST FILENAME           mobley_7676709_equil.xst
Info: XST FREQUENCY          100000
Info: NO VELOCITY DCD OUTPUT
Info: NO FORCE DCD OUTPUT
Info: OUTPUT FILENAME        mobley_7676709_equil
Info: BINARY OUTPUT FILES WILL BE USED
Info: RESTART FILENAME       mobley_7676709_equil.restart
Info: RESTART FREQUENCY      100000
Info: BINARY RESTART FILES WILL BE USED
Info: CUTOFF                 9
Info: PAIRLIST DISTANCE      11
Info: PAIRLIST SHRINK RATE   0.01
Info: PAIRLIST GROW RATE     0.01
Info: PAIRLIST TRIGGER       0.3
Info: PAIRLISTS PER CYCLE    2
Info: PAIRLISTS ENABLED
Info: MARGIN                 8
Info: HYDROGEN GROUP CUTOFF  2.5
Info: PATCH DIMENSION        21.5
Info: ENERGY OUTPUT STEPS    100000
Info: ENERGY EVALUATION STEPS    100000
Info: OUTPUT ENERGY PRECISION 4
Info: CROSSTERM ENERGY INCLUDED IN DIHEDRAL
Info: TIMING OUTPUT STEPS    1000000
Info: PRESSURE OUTPUT STEPS  100000
Info: FIXED ATOMS ACTIVE
Info: LANGEVIN DYNAMICS ACTIVE
Info: LANGEVIN TEMPERATURE   30
Info: LANGEVIN USING BBK INTEGRATOR
Info: LANGEVIN DAMPING COEFFICIENT IS 1 INVERSE PS
Info: LANGEVIN DYNAMICS APPLIED TO HYDROGENS
Info: LANGEVIN PISTON PRESSURE CONTROL ACTIVE
Info:        TARGET PRESSURE IS 1.01325 BAR
Info:     OSCILLATION PERIOD IS 50 FS
Info:             DECAY TIME IS 25 FS
Info:     PISTON TEMPERATURE IS 300 K
Info:       PRESSURE CONTROL IS GROUP-BASED
Info:    INITIAL STRAIN RATE IS 0 0 0
Info:       CELL FLUCTUATION IS ISOTROPIC
Info: PARTICLE MESH EWALD (PME) ACTIVE
Info: PME TOLERANCE               1e-06
Info: PME EWALD COEFFICIENT       0.348832
Info: PME INTERPOLATION ORDER     4
Info: PME GRID DIMENSIONS         40 36 36
Info: PME MAXIMUM GRID SPACING    1
Info: FULL ELECTROSTATIC EVALUATION FREQUENCY      2
Info: USING VERLET I (r-RESPA) MTS SCHEME.
Info: C1 SPLITTING OF LONG RANGE ELECTROSTATICS
Info: PLACING ATOMS IN PATCHES BY HYDROGEN GROUPS
Info: RIGID BONDS TO HYDROGEN : ALL
Info:         ERROR TOLERANCE : 1e-08
Info:          MAX ITERATIONS : 100
Info: RIGID WATER USING SETTLE ALGORITHM
Info: RANDOM NUMBER SEED     1744763069
Info: USE HYDROGEN BONDS?    NO
Info: Using AMBER format force field!
Info: AMBER PARM FILE        mobley_7676709.prmtop
Info: COORDINATE PDB         mobley_7676709.pdb
Info: Exclusions will be read from PARM file!
Info: SCNB (VDW SCALING)     2
Info: USING ARITHMETIC MEAN TO COMBINE L-J SIGMA PARAMETERS
Info: BINARY COORDINATES     mobley_7676709_min.coor
Info: SUMMARY OF PARAMETERS:
Info: 10 BONDS
Info: 15 ANGLES
Info:   15 HARMONIC
Info:   0 COSINE-BASED
Info: 14 DIHEDRAL
Info: 0 IMPROPER
Info: 0 CROSSTERM
Info: 0 VDW
Info: 28 VDW_PAIRS
Info: 0 NBTHOLE_PAIRS
Info: STRUCTURE SUMMARY:
Info: 2994 ATOMS
Info: 2994 BONDS
Info: 51 ANGLES
Info: 82 DIHEDRALS
Info: 0 IMPROPERS
Info: 0 CROSSTERMS
Info: 3113 EXCLUSIONS
Info: 27 FIXED ATOMS
Info: 2983 RIGID BONDS
Info: 16 RIGID BONDS BETWEEN FIXED ATOMS
Info: 5934 DEGREES OF FREEDOM
Info: 1000 HYDROGEN GROUPS
Info: 4 ATOMS IN LARGEST HYDROGEN GROUP
Info: 1000 MIGRATION GROUPS
Info: 4 ATOMS IN LARGEST MIGRATION GROUP
Info: 11 HYDROGEN GROUPS WITH ALL ATOMS FIXED
Info: TOTAL MASS = 17970.1 amu
Info: TOTAL CHARGE = -0.00029996 e
Info: MASS DENSITY = 0.677191 g/cm^3
Info: ATOM DENSITY = 0.0679445 atoms/A^3
Info: ADDED 0 IMPLICIT EXCLUSIONS
Info: NONBONDED TABLE R-SQUARED SPACING: 0.0625
Info: NONBONDED TABLE SIZE: 705 POINTS
Info: REMOVING COM VELOCITY 0.00369436 0.222748 -0.135402
TCL: Running for 100000 steps
ETITLE: TS BOND ANGLE DIHED IMPRP ELECT VDW BOUNDARY MISC KINETIC TOTAL TEMP POTENTIAL TOTAL3 TEMPAVG PRESSURE GPRESSURE VOLUME PRESSAVG GPRESSAVG
ENERGY: 0 0.0000 0.0000 0.0000 0.0000 -13768.1554 2374.4801 0.0000 0.0000 1753.8706 -9639.8047 297.4681 -11393.6754 -9639.4774 297.4681 223.6579 252.3075 44065.3479 223.6579 252.3075
ENERGY: 100000 0.0000 0.0000 0.0000 0.0000 -14392.4008 2488.1418 0.0000 0.0000 173.4450 -11730.8139 29.4174 -11904.2589 -11730.3988 30.9058 61.0419 92.2997 29208.5096 3.1705 3.1497
TCL: Running 100000 steps at 60 kelvin.
TCL: Setting parameter langevinTemp to 60
TCL: Running for 100000 steps
ETITLE: TS BOND ANGLE DIHED IMPRP ELECT VDW BOUNDARY MISC KINETIC TOTAL TEMP POTENTIAL TOTAL3 TEMPAVG PRESSURE GPRESSURE VOLUME PRESSAVG GPRESSAVG
ENERGY: 100000 0.0000 0.0000 0.0000 0.0000 -14392.4008 2488.1418 0.0000 0.0000 173.3566 -11730.9023 29.4024 -11904.2589 -11730.5569 29.4024 55.8199 92.1943 29208.5096 55.8199 92.1943
ENERGY: 200000 0.0000 0.0000 0.0000 0.0000 -14153.4959 2307.1620 0.0000 0.0000 361.2352 -11485.0987 61.2679 -11846.3339 -11484.4191 59.9858 -1165.7880 -1139.6154 29333.1299 4.1850 4.2405
TCL: Running 100000 steps at 90 kelvin.
TCL: Setting parameter langevinTemp to 90
TCL: Running for 100000 steps
ETITLE: TS BOND ANGLE DIHED IMPRP ELECT VDW BOUNDARY MISC KINETIC TOTAL TEMP POTENTIAL TOTAL3 TEMPAVG PRESSURE GPRESSURE VOLUME PRESSAVG GPRESSAVG
ENERGY: 200000 0.0000 0.0000 0.0000 0.0000 -14153.4959 2307.1620 0.0000 0.0000 361.0574 -11485.2765 61.2377 -11846.3339 -11484.2777 61.2377 -1195.2146 -1139.6723 29333.1299 -1195.2146 -1139.6723
ENERGY: 300000 0.0000 0.0000 0.0000 0.0000 -14048.0280 2289.7958 0.0000 0.0000 535.1891 -11223.0430 90.7716 -11758.2322 -11221.2779 89.9359 -973.1268 -920.5050 29248.9394 3.9664 3.8802
TCL: Running 100000 steps at 120 kelvin.
TCL: Setting parameter langevinTemp to 120
TCL: Running for 100000 steps
ETITLE: TS BOND ANGLE DIHED IMPRP ELECT VDW BOUNDARY MISC KINETIC TOTAL TEMP POTENTIAL TOTAL3 TEMPAVG PRESSURE GPRESSURE VOLUME PRESSAVG GPRESSAVG
ENERGY: 300000 0.0000 0.0000 0.0000 0.0000 -14048.0280 2289.7958 0.0000 0.0000 534.9136 -11223.3186 90.7249 -11758.2322 -11222.1423 90.7249 -983.0798 -920.4593 29248.9394 -983.0798 -920.4593
ENERGY: 400000 0.0000 0.0000 0.0000 0.0000 -13961.2967 2374.0005 0.0000 0.0000 714.5716 -10872.7246 121.1961 -11587.2962 -10870.5382 119.9141 203.6284 293.1189 29362.8662 2.9216 2.8307
TCL: Running 100000 steps at 150 kelvin.
TCL: Setting parameter langevinTemp to 150
TCL: Running for 100000 steps
ETITLE: TS BOND ANGLE DIHED IMPRP ELECT VDW BOUNDARY MISC KINETIC TOTAL TEMP POTENTIAL TOTAL3 TEMPAVG PRESSURE GPRESSURE VOLUME PRESSAVG GPRESSAVG
ENERGY: 400000 0.0000 0.0000 0.0000 0.0000 -13961.2967 2374.0005 0.0000 0.0000 714.2007 -10873.0955 121.1332 -11587.2962 -10871.7840 121.1332 222.6493 293.4427 29362.8662 222.6493 293.4427
ENERGY: 500000 0.0000 0.0000 0.0000 0.0000 -13813.2197 2330.0981 0.0000 0.0000 908.4906 -10574.6309 154.0860 -11483.1216 -10572.4739 150.1044 335.9936 386.3910 29257.4630 3.8036 3.8081
TCL: Running 100000 steps at 180 kelvin.
TCL: Setting parameter langevinTemp to 180
TCL: Running for 100000 steps
ETITLE: TS BOND ANGLE DIHED IMPRP ELECT VDW BOUNDARY MISC KINETIC TOTAL TEMP POTENTIAL TOTAL3 TEMPAVG PRESSURE GPRESSURE VOLUME PRESSAVG GPRESSAVG
ENERGY: 500000 0.0000 0.0000 0.0000 0.0000 -13813.2197 2330.0981 0.0000 0.0000 908.0466 -10575.0750 154.0107 -11483.1216 -10573.3718 154.0107 324.1555 385.6976 29257.4630 324.1555 385.6976
ENERGY: 600000 0.0000 0.0000 0.0000 0.0000 -13315.8873 2125.5875 0.0000 0.0000 1074.6714 -10115.6283 182.2714 -11190.2998 -10114.5979 179.7195 -95.2192 9.1269 28968.0884 5.2732 5.3770
TCL: Running 100000 steps at 210 kelvin.
TCL: Setting parameter langevinTemp to 210
TCL: Running for 100000 steps
ETITLE: TS BOND ANGLE DIHED IMPRP ELECT VDW BOUNDARY MISC KINETIC TOTAL TEMP POTENTIAL TOTAL3 TEMPAVG PRESSURE GPRESSURE VOLUME PRESSAVG GPRESSAVG
ENERGY: 600000 0.0000 0.0000 0.0000 0.0000 -13315.8873 2125.5875 0.0000 0.0000 1074.1541 -10116.1457 182.1837 -11190.2998 -10113.7746 182.1837 -47.3617 7.2348 28968.0884 -47.3617 7.2348
ENERGY: 700000 0.0000 0.0000 0.0000 0.0000 -12573.4759 1905.9410 0.0000 0.0000 1270.5092 -9397.0257 215.4868 -10667.5348 -9392.5538 210.0201 -98.1952 30.7133 29349.3662 4.5400 4.4593
TCL: Running 100000 steps at 240 kelvin.
TCL: Setting parameter langevinTemp to 240
TCL: Running for 100000 steps
ETITLE: TS BOND ANGLE DIHED IMPRP ELECT VDW BOUNDARY MISC KINETIC TOTAL TEMP POTENTIAL TOTAL3 TEMPAVG PRESSURE GPRESSURE VOLUME PRESSAVG GPRESSAVG
ENERGY: 700000 0.0000 0.0000 0.0000 0.0000 -12573.4759 1905.9410 0.0000 0.0000 1269.8814 -9397.6534 215.3803 -10667.5348 -9395.7598 215.3803 -52.8001 32.3371 29349.3662 -52.8001 32.3371
ENERGY: 800000 0.0000 0.0000 0.0000 0.0000 -11975.8417 1709.7742 0.0000 0.0000 1406.2170 -8859.8505 238.5037 -10266.0676 -8857.4902 239.6718 -326.6155 -188.1004 29513.7532 3.0560 3.1940
TCL: Running 100000 steps at 270 kelvin.
TCL: Setting parameter langevinTemp to 270
TCL: Running for 100000 steps
ETITLE: TS BOND ANGLE DIHED IMPRP ELECT VDW BOUNDARY MISC KINETIC TOTAL TEMP POTENTIAL TOTAL3 TEMPAVG PRESSURE GPRESSURE VOLUME PRESSAVG GPRESSAVG
ENERGY: 800000 0.0000 0.0000 0.0000 0.0000 -11975.8417 1709.7742 0.0000 0.0000 1405.5146 -8860.5530 238.3846 -10266.0676 -8859.1759 238.3846 -289.6044 -188.7080 29513.7532 -289.6044 -188.7080
ENERGY: 900000 0.0000 0.0000 0.0000 0.0000 -11392.2197 1577.8378 0.0000 0.0000 1598.4468 -8215.9351 271.1072 -9814.3819 -8212.6742 270.4846 -62.3830 12.8216 30161.0074 4.0310 4.0225
TCL: Running 1000000 steps at 300 kelvin.
TCL: Setting parameter langevinTemp to 300
TCL: Running for 1000000 steps
ETITLE: TS BOND ANGLE DIHED IMPRP ELECT VDW BOUNDARY MISC KINETIC TOTAL TEMP POTENTIAL TOTAL3 TEMPAVG PRESSURE GPRESSURE VOLUME PRESSAVG GPRESSAVG
ENERGY: 900000 0.0000 0.0000 0.0000 0.0000 -11392.2197 1577.8378 0.0000 0.0000 1597.6386 -8216.7433 270.9701 -9814.3819 -8213.8944 270.9701 -66.0725 12.2540 30161.0074 -66.0725 12.2540
ENERGY: 1100000 0.0000 0.0000 0.0000 0.0000 -10901.9544 1427.2426 0.0000 0.0000 1795.7756 -7678.9362 304.5755 -9474.7118 -7675.0512 299.6955 -356.6936 -221.7644 30801.5717 3.5740 3.4735
ENERGY: 1300000 0.0000 0.0000 0.0000 0.0000 -10670.7913 1341.4981 0.0000 0.0000 1748.1901 -7581.1031 296.5046 -9329.2932 -7577.0727 300.0041 -558.3315 -515.5144 30942.9647 2.5207 2.3498
ENERGY: 1500000 0.0000 0.0000 0.0000 0.0000 -10905.4305 1444.2082 0.0000 0.0000 1708.6412 -7752.5811 289.7969 -9461.2223 -7747.5257 300.0742 -236.3800 -109.7323 30729.3180 2.3311 2.2971
ENERGY: 1700000 0.0000 0.0000 0.0000 0.0000 -10947.6998 1519.1160 0.0000 0.0000 1767.7270 -7660.8569 299.8182 -9428.5839 -7656.8945 299.8648 228.7891 332.9494 31088.0470 2.5051 2.4029
ENERGY: 1900000 0.0000 0.0000 0.0000 0.0000 -10882.5764 1414.3059 0.0000 0.0000 1819.5840 -7648.6866 308.6135 -9468.2706 -7645.0335 300.6582 -578.5993 -421.7580 31173.3081 4.0061 3.7789
TCL: Exiting due to exit command.
