Info: SIMULATION PARAMETERS:
Info: TIMESTEP               2
Info: NUMBER OF STEPS        0
Info: STEPS PER CYCLE        10
Info: PERIODIC CELL BASIS 1  37.435 0 0
Info: PERIODIC CELL BASIS 2  0 34.26 0
Info: PERIODIC CELL BASIS 3  0 0 33.876
Info: PERIODIC CELL CENTER   0 0 0
Info: WRAPPING WATERS AROUND PERIODIC BOUNDARIES ON OUTPUT.
Info: WRAPPING ALL CLUSTERS AROUND PERIODIC BOUNDARIES ON OUTPUT.
Info: FIRST LDB TIMESTEP     50
Info: LAST LDB TIMESTEP     -1
Info: HOM BACKGROUND SCALING 1
Info: PME BACKGROUND SCALING 1
Info: MIN ATOMS PER PATCH    40
Info: EMPTY PATCH LOAD       40 ATOMS
Info: INITIAL TEMPERATURE    300
Info: CENTER OF MASS MOVING INITIALLY? NO
Info: DIELECTRIC             1
Info: EXCLUDE                SCALED ONE-FOUR
Info: 1-4 ELECTROSTATICS SCALED BY 0.833333
Info: MODIFIED 1-4 VDW PARAMETERS WILL BE USED
Info: DCD FILENAME           mobley_3639400_equil.dcd
Info: DCD FREQUENCY          100000
Info: DCD FIRST STEP         100000
Info: DCD FILE WILL CONTAIN UNIT CELL DATA
Info: XST FILENAME           mobley_3639400_equil.xst
Info: XST FREQUENCY          100000
Info: NO VELOCITY DCD OUTPUT
Info: NO FORCE DCD OUTPUT
Info: OUTPUT FILENAME        mobley_3639400_equil
Info: BINARY OUTPUT FILES WILL BE USED
Info: RESTART FILENAME       mobley_3639400_equil.restart
Info: RESTART FREQUENCY      100000
Info: BINARY RESTART FILES WILL BE USED
Info: CUTOFF                 9
Info: PAIRLIST DISTANCE      11
Info: PAIRLIST SHRINK RATE   0.01
Info: PAIRLIST GROW RATE     0.01
Info: PAIRLIST TRIGGER       0.3
Info: PAIRLISTS PER CYCLE    2
Info: PAIRLISTS ENABLED
Info: MARGIN                 8
Info: HYDROGEN GROUP CUTOFF  2.5
Info: PATCH DIMENSION        21.5
Info: ENERGY OUTPUT STEPS    100000
Info: ENERGY EVALUATION STEPS    100000
Info: OUTPUT ENERGY PRECISION 4
Info: CROSSTERM ENERGY INCLUDED IN DIHEDRAL
Info: TIMING OUTPUT STEPS    1000000
Info: PRESSURE OUTPUT STEPS  100000
Info: FIXED ATOMS ACTIVE
Info: LANGEVIN DYNAMICS ACTIVE
Info: LANGEVIN TEMPERATURE   30
Info: LANGEVIN USING BBK INTEGRATOR
Info: LANGEVIN DAMPING COEFFICIENT IS 1 INVERSE PS
Info: LANGEVIN DYNAMICS APPLIED TO HYDROGENS
Info: LANGEVIN PISTON PRESSURE CONTROL ACTIVE
Info:        TARGET PRESSURE IS 1.01325 BAR
Info:     OSCILLATION PERIOD IS 50 FS
Info:             DECAY TIME IS 25 FS
Info:     PISTON TEMPERATURE IS 300 K
Info:       PRESSURE CONTROL IS GROUP-BASED
Info:    INITIAL STRAIN RATE IS 0 0 0
Info:       CELL FLUCTUATION IS ISOTROPIC
Info: PARTICLE MESH EWALD (PME) ACTIVE
Info: PME TOLERANCE               1e-06
Info: PME EWALD COEFFICIENT       0.348832
Info: PME INTERPOLATION ORDER     4
Info: PME GRID DIMENSIONS         40 36 36
Info: PME MAXIMUM GRID SPACING    1
Info: FULL ELECTROSTATIC EVALUATION FREQUENCY      2
Info: USING VERLET I (r-RESPA) MTS SCHEME.
Info: C1 SPLITTING OF LONG RANGE ELECTROSTATICS
Info: PLACING ATOMS IN PATCHES BY HYDROGEN GROUPS
Info: RIGID BONDS TO HYDROGEN : ALL
Info:         ERROR TOLERANCE : 1e-08
Info:          MAX ITERATIONS : 100
Info: RIGID WATER USING SETTLE ALGORITHM
Info: RANDOM NUMBER SEED     1744764719
Info: USE HYDROGEN BONDS?    NO
Info: Using AMBER format force field!
Info: AMBER PARM FILE        mobley_3639400.prmtop
Info: COORDINATE PDB         mobley_3639400.pdb
Info: Exclusions will be read from PARM file!
Info: SCNB (VDW SCALING)     2
Info: USING ARITHMETIC MEAN TO COMBINE L-J SIGMA PARAMETERS
Info: BINARY COORDINATES     mobley_3639400_min.coor
Info: SUMMARY OF PARAMETERS:
Info: 6 BONDS
Info: 7 ANGLES
Info: 8 DIHEDRAL
Info: 0 IMPROPER
Info: 0 CROSSTERM
Info: 0 VDW
Info: 21 VDW_PAIRS
Info: 0 NBTHOLE_PAIRS
Info: STRUCTURE SUMMARY:
Info: 2900 ATOMS
Info: 2899 BONDS
Info: 24 ANGLES
Info: 31 DIHEDRALS
Info: 0 IMPROPERS
Info: 0 CROSSTERMS
Info: 2950 EXCLUSIONS
Info: 14 FIXED ATOMS
Info: 2895 RIGID BONDS
Info: 9 RIGID BONDS BETWEEN FIXED ATOMS
Info: 5772 DEGREES OF FREEDOM
Info: 967 HYDROGEN GROUPS
Info: 4 ATOMS IN LARGEST HYDROGEN GROUP
Info: 967 MIGRATION GROUPS
Info: 4 ATOMS IN LARGEST MIGRATION GROUP
Info: 5 HYDROGEN GROUPS WITH ALL ATOMS FIXED
Info: TOTAL MASS = 17424 amu
Info: TOTAL CHARGE = 0.000200015 e
Info: MASS DENSITY = 0.665961 g/cm^3
Info: ATOM DENSITY = 0.0667484 atoms/A^3
Info: ADDED 0 IMPLICIT EXCLUSIONS
Info: NONBONDED TABLE R-SQUARED SPACING: 0.0625
Info: NONBONDED TABLE SIZE: 705 POINTS
Info: REMOVING COM VELOCITY 0.133025 -0.0399218 0.027166
TCL: Running for 100000 steps
ETITLE: TS BOND ANGLE DIHED IMPRP ELECT VDW BOUNDARY MISC KINETIC TOTAL TEMP POTENTIAL TOTAL3 TEMPAVG PRESSURE GPRESSURE VOLUME PRESSAVG GPRESSAVG
ENERGY: 0 0.0000 0.0000 0.0000 0.0000 -13390.9309 2344.6134 0.0000 0.0000 1747.0558 -9299.2618 304.6287 -11046.3176 -9298.8938 304.6287 360.1680 397.9539 43446.7525 360.1680 397.9539
ENERGY: 100000 0.0000 0.0000 0.0000 0.0000 -13905.9695 2382.6538 0.0000 0.0000 176.3950 -11346.9207 30.7575 -11523.3157 -11346.4770 30.9633 -347.1815 -278.5489 28429.9104 5.4787 5.4510
TCL: Running 100000 steps at 60 kelvin.
TCL: Setting parameter langevinTemp to 60
TCL: Running for 100000 steps
ETITLE: TS BOND ANGLE DIHED IMPRP ELECT VDW BOUNDARY MISC KINETIC TOTAL TEMP POTENTIAL TOTAL3 TEMPAVG PRESSURE GPRESSURE VOLUME PRESSAVG GPRESSAVG
ENERGY: 100000 0.0000 0.0000 0.0000 0.0000 -13905.9695 2382.6538 0.0000 0.0000 176.3086 -11347.0071 30.7424 -11523.3157 -11346.7175 30.7424 -329.6097 -278.6598 28429.9104 -329.6097 -278.6598
ENERGY: 200000 0.0000 0.0000 0.0000 0.0000 -13790.7400 2344.0663 0.0000 0.0000 339.4814 -11107.1923 59.1943 -11446.6737 -11106.3775 60.0645 -354.0794 -341.2459 28380.7222 4.2272 4.2601
TCL: Running 100000 steps at 90 kelvin.
TCL: Setting parameter langevinTemp to 90
TCL: Running for 100000 steps
ETITLE: TS BOND ANGLE DIHED IMPRP ELECT VDW BOUNDARY MISC KINETIC TOTAL TEMP POTENTIAL TOTAL3 TEMPAVG PRESSURE GPRESSURE VOLUME PRESSAVG GPRESSAVG
ENERGY: 200000 0.0000 0.0000 0.0000 0.0000 -13790.7400 2344.0663 0.0000 0.0000 339.3115 -11107.3622 59.1647 -11446.6737 -11106.7506 59.1647 -382.6498 -341.3611 28380.7222 -382.6498 -341.3611
ENERGY: 300000 0.0000 0.0000 0.0000 0.0000 -13679.1587 2310.8932 0.0000 0.0000 512.8489 -10855.4166 89.4239 -11368.2655 -10853.4560 90.0032 -439.1009 -351.6740 28530.9237 3.1820 3.1880
TCL: Running 100000 steps at 120 kelvin.
TCL: Setting parameter langevinTemp to 120
TCL: Running for 100000 steps
ETITLE: TS BOND ANGLE DIHED IMPRP ELECT VDW BOUNDARY MISC KINETIC TOTAL TEMP POTENTIAL TOTAL3 TEMPAVG PRESSURE GPRESSURE VOLUME PRESSAVG GPRESSAVG
ENERGY: 300000 0.0000 0.0000 0.0000 0.0000 -13679.1587 2310.8932 0.0000 0.0000 512.5923 -10855.6732 89.3791 -11368.2655 -10854.5888 89.3791 -402.0501 -351.3999 28530.9237 -402.0501 -351.3999
ENERGY: 400000 0.0000 0.0000 0.0000 0.0000 -13440.2646 2157.2987 0.0000 0.0000 706.8479 -10576.1179 123.2509 -11282.9658 -10574.3959 120.0871 -1261.0156 -1194.5527 28435.9223 4.5695 4.4975
TCL: Running 100000 steps at 150 kelvin.
TCL: Setting parameter langevinTemp to 150
TCL: Running for 100000 steps
ETITLE: TS BOND ANGLE DIHED IMPRP ELECT VDW BOUNDARY MISC KINETIC TOTAL TEMP POTENTIAL TOTAL3 TEMPAVG PRESSURE GPRESSURE VOLUME PRESSAVG GPRESSAVG
ENERGY: 400000 0.0000 0.0000 0.0000 0.0000 -13440.2646 2157.2987 0.0000 0.0000 706.5143 -10576.4515 123.1927 -11282.9658 -10574.9112 123.1927 -1243.1306 -1194.5874 28435.9223 -1243.1306 -1194.5874
ENERGY: 500000 0.0000 0.0000 0.0000 0.0000 -13251.9849 2134.7076 0.0000 0.0000 859.0658 -10258.2114 149.7927 -11117.2773 -10255.6710 149.5914 -690.8301 -593.8659 28218.9538 3.9331 3.7740
TCL: Running 100000 steps at 180 kelvin.
TCL: Setting parameter langevinTemp to 180
TCL: Running for 100000 steps
ETITLE: TS BOND ANGLE DIHED IMPRP ELECT VDW BOUNDARY MISC KINETIC TOTAL TEMP POTENTIAL TOTAL3 TEMPAVG PRESSURE GPRESSURE VOLUME PRESSAVG GPRESSAVG
ENERGY: 500000 0.0000 0.0000 0.0000 0.0000 -13251.9849 2134.7076 0.0000 0.0000 858.6318 -10258.6455 149.7170 -11117.2773 -10257.0386 149.7170 -661.1288 -593.0105 28218.9538 -661.1288 -593.0105
ENERGY: 600000 0.0000 0.0000 0.0000 0.0000 -12889.9805 2078.1461 0.0000 0.0000 1024.4996 -9787.3348 178.6388 -10811.8344 -9784.4243 179.8270 -43.2664 15.5241 28320.3340 3.6681 3.7388
TCL: Running 100000 steps at 210 kelvin.
TCL: Setting parameter langevinTemp to 210
TCL: Running for 100000 steps
ETITLE: TS BOND ANGLE DIHED IMPRP ELECT VDW BOUNDARY MISC KINETIC TOTAL TEMP POTENTIAL TOTAL3 TEMPAVG PRESSURE GPRESSURE VOLUME PRESSAVG GPRESSAVG
ENERGY: 600000 0.0000 0.0000 0.0000 0.0000 -12889.9805 2078.1461 0.0000 0.0000 1023.9775 -9787.8569 178.5478 -10811.8344 -9786.2486 178.5478 -46.9333 16.8599 28320.3340 -46.9333 16.8599
ENERGY: 700000 0.0000 0.0000 0.0000 0.0000 -12241.0745 1866.8640 0.0000 0.0000 1178.6262 -9195.5843 205.5134 -10374.2106 -9192.3941 210.0490 -27.9328 36.6323 28123.8540 2.9202 2.9323
TCL: Running 100000 steps at 240 kelvin.
TCL: Setting parameter langevinTemp to 240
TCL: Running for 100000 steps
ETITLE: TS BOND ANGLE DIHED IMPRP ELECT VDW BOUNDARY MISC KINETIC TOTAL TEMP POTENTIAL TOTAL3 TEMPAVG PRESSURE GPRESSURE VOLUME PRESSAVG GPRESSAVG
ENERGY: 700000 0.0000 0.0000 0.0000 0.0000 -12241.0745 1866.8640 0.0000 0.0000 1178.0310 -9196.1795 205.4096 -10374.2106 -9194.1307 205.4096 -46.1520 36.0436 28123.8540 -46.1520 36.0436
ENERGY: 800000 0.0000 0.0000 0.0000 0.0000 -11692.0914 1774.3503 0.0000 0.0000 1348.8750 -8568.8660 235.1992 -9917.7411 -8566.7840 239.8191 906.6305 981.2608 28126.0316 2.9689 3.0634
TCL: Running 100000 steps at 270 kelvin.
TCL: Setting parameter langevinTemp to 270
TCL: Running for 100000 steps
ETITLE: TS BOND ANGLE DIHED IMPRP ELECT VDW BOUNDARY MISC KINETIC TOTAL TEMP POTENTIAL TOTAL3 TEMPAVG PRESSURE GPRESSURE VOLUME PRESSAVG GPRESSAVG
ENERGY: 800000 0.0000 0.0000 0.0000 0.0000 -11692.0914 1774.3503 0.0000 0.0000 1348.1937 -8569.5473 235.0804 -9917.7411 -8567.5754 235.0804 904.6666 981.1845 28126.0316 904.6666 981.1845
ENERGY: 900000 0.0000 0.0000 0.0000 0.0000 -10989.6527 1456.5370 0.0000 0.0000 1573.0117 -7960.1040 274.2812 -9533.1157 -7958.0556 269.9923 -789.5502 -696.0596 29093.9056 3.4642 3.3385
TCL: Running 1000000 steps at 300 kelvin.
TCL: Setting parameter langevinTemp to 300
TCL: Running for 1000000 steps
ETITLE: TS BOND ANGLE DIHED IMPRP ELECT VDW BOUNDARY MISC KINETIC TOTAL TEMP POTENTIAL TOTAL3 TEMPAVG PRESSURE GPRESSURE VOLUME PRESSAVG GPRESSAVG
ENERGY: 900000 0.0000 0.0000 0.0000 0.0000 -10989.6527 1456.5370 0.0000 0.0000 1572.2556 -7960.8601 274.1493 -9533.1157 -7958.3424 274.1493 -773.5391 -697.9673 29093.9056 -773.5391 -697.9673
ENERGY: 1100000 0.0000 0.0000 0.0000 0.0000 -10384.3208 1311.9619 0.0000 0.0000 1771.2197 -7301.1391 308.8421 -9072.3589 -7298.8394 299.5841 -626.3382 -542.4670 29812.7809 2.7272 2.6499
ENERGY: 1300000 0.0000 0.0000 0.0000 0.0000 -10554.1910 1432.4406 0.0000 0.0000 1711.4606 -7410.2899 298.4221 -9121.7505 -7406.5753 299.6845 62.3182 181.3325 29670.5105 2.8758 2.7409
ENERGY: 1500000 0.0000 0.0000 0.0000 0.0000 -10388.2842 1368.5547 0.0000 0.0000 1709.4446 -7310.2850 298.0706 -9019.7296 -7306.3751 300.7393 -297.9140 -231.2370 30250.8353 2.1643 2.1456
ENERGY: 1700000 0.0000 0.0000 0.0000 0.0000 -10420.0318 1328.3984 0.0000 0.0000 1766.3547 -7325.2787 307.9938 -9091.6334 -7323.1535 300.9112 -657.5724 -596.2328 29897.5839 2.5867 2.4733
ENERGY: 1900000 0.0000 0.0000 0.0000 0.0000 -10572.0654 1468.9485 0.0000 0.0000 1816.5129 -7286.6039 316.7397 -9103.1168 -7281.6260 300.3166 402.7519 496.2585 30068.2445 2.7374 2.6233
TCL: Exiting due to exit command.
