Info: SIMULATION PARAMETERS:
Info: TIMESTEP               2
Info: NUMBER OF STEPS        0
Info: STEPS PER CYCLE        10
Info: PERIODIC CELL BASIS 1  38.861 0 0
Info: PERIODIC CELL BASIS 2  0 34.457 0
Info: PERIODIC CELL BASIS 3  0 0 33.876
Info: PERIODIC CELL CENTER   0 0 0
Info: WRAPPING WATERS AROUND PERIODIC BOUNDARIES ON OUTPUT.
Info: WRAPPING ALL CLUSTERS AROUND PERIODIC BOUNDARIES ON OUTPUT.
Info: FIRST LDB TIMESTEP     50
Info: LAST LDB TIMESTEP     -1
Info: HOM BACKGROUND SCALING 1
Info: PME BACKGROUND SCALING 1
Info: MIN ATOMS PER PATCH    40
Info: EMPTY PATCH LOAD       40 ATOMS
Info: INITIAL TEMPERATURE    300
Info: CENTER OF MASS MOVING INITIALLY? NO
Info: DIELECTRIC             1
Info: EXCLUDE                SCALED ONE-FOUR
Info: 1-4 ELECTROSTATICS SCALED BY 0.833333
Info: MODIFIED 1-4 VDW PARAMETERS WILL BE USED
Info: DCD FILENAME           mobley_8311303_equil.dcd
Info: DCD FREQUENCY          100000
Info: DCD FIRST STEP         100000
Info: DCD FILE WILL CONTAIN UNIT CELL DATA
Info: XST FILENAME           mobley_8311303_equil.xst
Info: XST FREQUENCY          100000
Info: NO VELOCITY DCD OUTPUT
Info: NO FORCE DCD OUTPUT
Info: OUTPUT FILENAME        mobley_8311303_equil
Info: BINARY OUTPUT FILES WILL BE USED
Info: RESTART FILENAME       mobley_8311303_equil.restart
Info: RESTART FREQUENCY      100000
Info: BINARY RESTART FILES WILL BE USED
Info: CUTOFF                 9
Info: PAIRLIST DISTANCE      11
Info: PAIRLIST SHRINK RATE   0.01
Info: PAIRLIST GROW RATE     0.01
Info: PAIRLIST TRIGGER       0.3
Info: PAIRLISTS PER CYCLE    2
Info: PAIRLISTS ENABLED
Info: MARGIN                 8
Info: HYDROGEN GROUP CUTOFF  2.5
Info: PATCH DIMENSION        21.5
Info: ENERGY OUTPUT STEPS    100000
Info: ENERGY EVALUATION STEPS    100000
Info: OUTPUT ENERGY PRECISION 4
Info: CROSSTERM ENERGY INCLUDED IN DIHEDRAL
Info: TIMING OUTPUT STEPS    1000000
Info: PRESSURE OUTPUT STEPS  100000
Info: FIXED ATOMS ACTIVE
Info: LANGEVIN DYNAMICS ACTIVE
Info: LANGEVIN TEMPERATURE   30
Info: LANGEVIN USING BBK INTEGRATOR
Info: LANGEVIN DAMPING COEFFICIENT IS 1 INVERSE PS
Info: LANGEVIN DYNAMICS APPLIED TO HYDROGENS
Info: LANGEVIN PISTON PRESSURE CONTROL ACTIVE
Info:        TARGET PRESSURE IS 1.01325 BAR
Info:     OSCILLATION PERIOD IS 50 FS
Info:             DECAY TIME IS 25 FS
Info:     PISTON TEMPERATURE IS 300 K
Info:       PRESSURE CONTROL IS GROUP-BASED
Info:    INITIAL STRAIN RATE IS 0 0 0
Info:       CELL FLUCTUATION IS ISOTROPIC
Info: PARTICLE MESH EWALD (PME) ACTIVE
Info: PME TOLERANCE               1e-06
Info: PME EWALD COEFFICIENT       0.348832
Info: PME INTERPOLATION ORDER     4
Info: PME GRID DIMENSIONS         40 36 36
Info: PME MAXIMUM GRID SPACING    1
Info: FULL ELECTROSTATIC EVALUATION FREQUENCY      2
Info: USING VERLET I (r-RESPA) MTS SCHEME.
Info: C1 SPLITTING OF LONG RANGE ELECTROSTATICS
Info: PLACING ATOMS IN PATCHES BY HYDROGEN GROUPS
Info: RIGID BONDS TO HYDROGEN : ALL
Info:         ERROR TOLERANCE : 1e-08
Info:          MAX ITERATIONS : 100
Info: RIGID WATER USING SETTLE ALGORITHM
Info: RANDOM NUMBER SEED     1744726452
Info: USE HYDROGEN BONDS?    NO
Info: Using AMBER format force field!
Info: AMBER PARM FILE        mobley_8311303.prmtop
Info: COORDINATE PDB         mobley_8311303.pdb
Info: Exclusions will be read from PARM file!
Info: SCNB (VDW SCALING)     2
Info: USING ARITHMETIC MEAN TO COMBINE L-J SIGMA PARAMETERS
Info: BINARY COORDINATES     mobley_8311303_min.coor
Info: SUMMARY OF PARAMETERS:
Info: 7 BONDS
Info: 8 ANGLES
Info:   8 HARMONIC
Info:   0 COSINE-BASED
Info: 3 DIHEDRAL
Info: 0 IMPROPER
Info: 0 CROSSTERM
Info: 0 VDW
Info: 15 VDW_PAIRS
Info: 0 NBTHOLE_PAIRS
Info: STRUCTURE SUMMARY:
Info: 2980 ATOMS
Info: 2981 BONDS
Info: 36 ANGLES
Info: 64 DIHEDRALS
Info: 0 IMPROPERS
Info: 0 CROSSTERMS
Info: 3063 EXCLUSIONS
Info: 22 FIXED ATOMS
Info: 2962 RIGID BONDS
Info: 4 RIGID BONDS BETWEEN FIXED ATOMS
Info: 5916 DEGREES OF FREEDOM
Info: 1004 HYDROGEN GROUPS
Info: 3 ATOMS IN LARGEST HYDROGEN GROUP
Info: 1004 MIGRATION GROUPS
Info: 3 ATOMS IN LARGEST MIGRATION GROUP
Info: 18 HYDROGEN GROUPS WITH ALL ATOMS FIXED
Info: TOTAL MASS = 18124.6 amu
Info: TOTAL CHARGE = 0.000100008 e
Info: MASS DENSITY = 0.663506 g/cm^3
Info: ATOM DENSITY = 0.0656951 atoms/A^3
Info: ADDED 0 IMPLICIT EXCLUSIONS
Info: NONBONDED TABLE R-SQUARED SPACING: 0.0625
Info: NONBONDED TABLE SIZE: 705 POINTS
Info: REMOVING COM VELOCITY -0.0823565 -0.00800795 0.0220144
TCL: Running for 100000 steps
ETITLE: TS BOND ANGLE DIHED IMPRP ELECT VDW BOUNDARY MISC KINETIC TOTAL TEMP POTENTIAL TOTAL3 TEMPAVG PRESSURE GPRESSURE VOLUME PRESSAVG GPRESSAVG
ENERGY: 0 0.0000 0.0000 0.0000 0.0000 -13720.2781 2407.7703 0.0000 0.0000 1740.7280 -9571.7798 296.1373 -11312.5078 -9571.4676 296.1373 545.3578 576.9456 45361.0981 545.3578 576.9456
ENERGY: 100000 0.0000 0.0000 0.0000 0.0000 -14248.6625 2402.9603 0.0000 0.0000 176.7429 -11668.9593 30.0680 -11845.7022 -11668.3950 30.9102 -796.9529 -740.6291 29557.4368 3.7383 3.7292
TCL: Running 100000 steps at 60 kelvin.
TCL: Setting parameter langevinTemp to 60
TCL: Running for 100000 steps
ETITLE: TS BOND ANGLE DIHED IMPRP ELECT VDW BOUNDARY MISC KINETIC TOTAL TEMP POTENTIAL TOTAL3 TEMPAVG PRESSURE GPRESSURE VOLUME PRESSAVG GPRESSAVG
ENERGY: 100000 0.0000 0.0000 0.0000 0.0000 -14248.6625 2402.9603 0.0000 0.0000 176.6552 -11669.0470 30.0531 -11845.7022 -11668.6685 30.0531 -793.0770 -740.5350 29557.4368 -793.0770 -740.5350
ENERGY: 200000 0.0000 0.0000 0.0000 0.0000 -14127.0389 2343.9992 0.0000 0.0000 355.9729 -11427.0667 60.5591 -11783.0397 -11426.1820 59.9721 -765.0664 -713.3737 29120.3759 3.7996 3.7284
TCL: Running 100000 steps at 90 kelvin.
TCL: Setting parameter langevinTemp to 90
TCL: Running for 100000 steps
ETITLE: TS BOND ANGLE DIHED IMPRP ELECT VDW BOUNDARY MISC KINETIC TOTAL TEMP POTENTIAL TOTAL3 TEMPAVG PRESSURE GPRESSURE VOLUME PRESSAVG GPRESSAVG
ENERGY: 200000 0.0000 0.0000 0.0000 0.0000 -14127.0389 2343.9992 0.0000 0.0000 355.8011 -11427.2386 60.5298 -11783.0397 -11426.4749 60.5298 -761.6529 -713.7020 29120.3759 -761.6529 -713.7020
ENERGY: 300000 0.0000 0.0000 0.0000 0.0000 -14067.4561 2381.2779 0.0000 0.0000 521.5889 -11164.5893 88.7341 -11686.1781 -11162.8882 89.8166 -87.9611 -20.5408 29035.5253 4.1356 4.1466
TCL: Running 100000 steps at 120 kelvin.
TCL: Setting parameter langevinTemp to 120
TCL: Running for 100000 steps
ETITLE: TS BOND ANGLE DIHED IMPRP ELECT VDW BOUNDARY MISC KINETIC TOTAL TEMP POTENTIAL TOTAL3 TEMPAVG PRESSURE GPRESSURE VOLUME PRESSAVG GPRESSAVG
ENERGY: 300000 0.0000 0.0000 0.0000 0.0000 -14067.4561 2381.2779 0.0000 0.0000 521.3362 -11164.8419 88.6911 -11686.1781 -11163.8407 88.6911 -71.7009 -19.9038 29035.5253 -71.7009 -19.9038
ENERGY: 400000 0.0000 0.0000 0.0000 0.0000 -13731.1861 2220.4678 0.0000 0.0000 725.3421 -10785.3762 123.3972 -11510.7183 -10783.8710 120.0697 -811.9105 -734.2141 29197.0819 2.2976 2.2793
TCL: Running 100000 steps at 150 kelvin.
TCL: Setting parameter langevinTemp to 150
TCL: Running for 100000 steps
ETITLE: TS BOND ANGLE DIHED IMPRP ELECT VDW BOUNDARY MISC KINETIC TOTAL TEMP POTENTIAL TOTAL3 TEMPAVG PRESSURE GPRESSURE VOLUME PRESSAVG GPRESSAVG
ENERGY: 400000 0.0000 0.0000 0.0000 0.0000 -13731.1861 2220.4678 0.0000 0.0000 725.0017 -10785.7166 123.3392 -11510.7183 -10784.1606 123.3392 -787.3593 -734.3122 29197.0819 -787.3593 -734.3122
ENERGY: 500000 0.0000 0.0000 0.0000 0.0000 -13609.2506 2234.1624 0.0000 0.0000 874.8348 -10500.2534 148.8292 -11375.0882 -10497.4916 150.2090 8.0937 42.0284 29020.8468 4.2493 4.2153
TCL: Running 100000 steps at 180 kelvin.
TCL: Setting parameter langevinTemp to 180
TCL: Running for 100000 steps
ETITLE: TS BOND ANGLE DIHED IMPRP ELECT VDW BOUNDARY MISC KINETIC TOTAL TEMP POTENTIAL TOTAL3 TEMPAVG PRESSURE GPRESSURE VOLUME PRESSAVG GPRESSAVG
ENERGY: 500000 0.0000 0.0000 0.0000 0.0000 -13609.2506 2234.1624 0.0000 0.0000 874.4053 -10500.6828 148.7562 -11375.0882 -10499.0272 148.7562 -22.4894 42.1538 29020.8468 -22.4894 42.1538
ENERGY: 600000 0.0000 0.0000 0.0000 0.0000 -13363.7826 2231.0432 0.0000 0.0000 1077.7713 -10054.9681 183.3533 -11132.7394 -10052.9564 180.1841 877.3462 899.2975 29002.9702 2.2341 2.1547
TCL: Running 100000 steps at 210 kelvin.
TCL: Setting parameter langevinTemp to 210
TCL: Running for 100000 steps
ETITLE: TS BOND ANGLE DIHED IMPRP ELECT VDW BOUNDARY MISC KINETIC TOTAL TEMP POTENTIAL TOTAL3 TEMPAVG PRESSURE GPRESSURE VOLUME PRESSAVG GPRESSAVG
ENERGY: 600000 0.0000 0.0000 0.0000 0.0000 -13363.7826 2231.0432 0.0000 0.0000 1077.2198 -10055.5197 183.2595 -11132.7394 -10053.8686 183.2595 837.4351 899.3207 29002.9702 837.4351 899.3207
ENERGY: 700000 0.0000 0.0000 0.0000 0.0000 -12504.3877 1888.5673 0.0000 0.0000 1243.6145 -9372.2058 211.5670 -10615.8204 -9368.5650 209.5982 179.5590 213.0336 28848.0842 4.0971 4.0628
TCL: Running 100000 steps at 240 kelvin.
TCL: Setting parameter langevinTemp to 240
TCL: Running for 100000 steps
ETITLE: TS BOND ANGLE DIHED IMPRP ELECT VDW BOUNDARY MISC KINETIC TOTAL TEMP POTENTIAL TOTAL3 TEMPAVG PRESSURE GPRESSURE VOLUME PRESSAVG GPRESSAVG
ENERGY: 700000 0.0000 0.0000 0.0000 0.0000 -12504.3877 1888.5673 0.0000 0.0000 1243.0055 -9372.8149 211.4634 -10615.8204 -9371.2903 211.4634 134.4447 213.5602 28848.0842 134.4447 213.5602
ENERGY: 800000 0.0000 0.0000 0.0000 0.0000 -11826.1755 1670.9849 0.0000 0.0000 1376.5356 -8778.6550 234.1799 -10155.1906 -8776.2702 239.9230 -333.5353 -289.5555 29536.0594 3.9383 4.1094
TCL: Running 100000 steps at 270 kelvin.
TCL: Setting parameter langevinTemp to 270
TCL: Running for 100000 steps
ETITLE: TS BOND ANGLE DIHED IMPRP ELECT VDW BOUNDARY MISC KINETIC TOTAL TEMP POTENTIAL TOTAL3 TEMPAVG PRESSURE GPRESSURE VOLUME PRESSAVG GPRESSAVG
ENERGY: 800000 0.0000 0.0000 0.0000 0.0000 -11826.1755 1670.9849 0.0000 0.0000 1375.8289 -8779.3617 234.0597 -10155.1906 -8776.7650 234.0597 -380.5436 -291.1776 29536.0594 -380.5436 -291.1776
ENERGY: 900000 0.0000 0.0000 0.0000 0.0000 -11414.5632 1664.6072 0.0000 0.0000 1550.1014 -8199.8545 263.7074 -9749.9560 -8195.8977 268.9796 1055.7635 1056.0818 29722.8659 3.3196 3.3189
TCL: Running 1000000 steps at 300 kelvin.
TCL: Setting parameter langevinTemp to 300
TCL: Running for 1000000 steps
ETITLE: TS BOND ANGLE DIHED IMPRP ELECT VDW BOUNDARY MISC KINETIC TOTAL TEMP POTENTIAL TOTAL3 TEMPAVG PRESSURE GPRESSURE VOLUME PRESSAVG GPRESSAVG
ENERGY: 900000 0.0000 0.0000 0.0000 0.0000 -11414.5632 1664.6072 0.0000 0.0000 1549.3052 -8200.6507 263.5720 -9749.9560 -8198.8426 263.5720 980.9777 1057.6402 29722.8659 980.9777 1057.6402
ENERGY: 1100000 0.0000 0.0000 0.0000 0.0000 -10780.5827 1402.3253 0.0000 0.0000 1752.3240 -7625.9334 298.1101 -9378.2574 -7622.9016 300.5224 -206.3916 -141.5729 30574.1464 3.0787 2.9629
ENERGY: 1300000 0.0000 0.0000 0.0000 0.0000 -10713.5614 1393.5675 0.0000 0.0000 1773.1915 -7546.8025 301.6601 -9319.9939 -7543.0119 300.2797 -314.8148 -227.6379 30989.9530 3.9836 3.9785
ENERGY: 1500000 0.0000 0.0000 0.0000 0.0000 -10831.6209 1467.6701 0.0000 0.0000 1703.9148 -7660.0361 289.8746 -9363.9509 -7657.7319 300.7393 259.7194 385.5198 30581.9105 2.9496 2.9517
ENERGY: 1700000 0.0000 0.0000 0.0000 0.0000 -10692.9178 1394.7354 0.0000 0.0000 1839.0742 -7459.1082 312.8682 -9298.1824 -7455.6917 300.5196 -357.7089 -238.3512 31196.2247 2.7554 2.6823
ENERGY: 1900000 0.0000 0.0000 0.0000 0.0000 -10766.6652 1474.7103 0.0000 0.0000 1786.4299 -7505.5249 303.9122 -9291.9549 -7501.5768 300.2522 375.1951 425.4183 30897.0699 2.8927 2.8622
TCL: Exiting due to exit command.
