Info: SIMULATION PARAMETERS:
Info: TIMESTEP               2
Info: NUMBER OF STEPS        0
Info: STEPS PER CYCLE        10
Info: PERIODIC CELL BASIS 1  38.861 0 0
Info: PERIODIC CELL BASIS 2  0 35.411 0
Info: PERIODIC CELL BASIS 3  0 0 31.855
Info: PERIODIC CELL CENTER   0 0 0
Info: WRAPPING WATERS AROUND PERIODIC BOUNDARIES ON OUTPUT.
Info: WRAPPING ALL CLUSTERS AROUND PERIODIC BOUNDARIES ON OUTPUT.
Info: FIRST LDB TIMESTEP     50
Info: LAST LDB TIMESTEP     -1
Info: HOM BACKGROUND SCALING 1
Info: PME BACKGROUND SCALING 1
Info: MIN ATOMS PER PATCH    40
Info: EMPTY PATCH LOAD       40 ATOMS
Info: INITIAL TEMPERATURE    300
Info: CENTER OF MASS MOVING INITIALLY? NO
Info: DIELECTRIC             1
Info: EXCLUDE                SCALED ONE-FOUR
Info: 1-4 ELECTROSTATICS SCALED BY 0.833333
Info: MODIFIED 1-4 VDW PARAMETERS WILL BE USED
Info: DCD FILENAME           mobley_6359156_equil.dcd
Info: DCD FREQUENCY          100000
Info: DCD FIRST STEP         100000
Info: DCD FILE WILL CONTAIN UNIT CELL DATA
Info: XST FILENAME           mobley_6359156_equil.xst
Info: XST FREQUENCY          100000
Info: NO VELOCITY DCD OUTPUT
Info: NO FORCE DCD OUTPUT
Info: OUTPUT FILENAME        mobley_6359156_equil
Info: BINARY OUTPUT FILES WILL BE USED
Info: RESTART FILENAME       mobley_6359156_equil.restart
Info: RESTART FREQUENCY      100000
Info: BINARY RESTART FILES WILL BE USED
Info: CUTOFF                 9
Info: PAIRLIST DISTANCE      11
Info: PAIRLIST SHRINK RATE   0.01
Info: PAIRLIST GROW RATE     0.01
Info: PAIRLIST TRIGGER       0.3
Info: PAIRLISTS PER CYCLE    2
Info: PAIRLISTS ENABLED
Info: MARGIN                 8
Info: HYDROGEN GROUP CUTOFF  2.5
Info: PATCH DIMENSION        21.5
Info: ENERGY OUTPUT STEPS    100000
Info: ENERGY EVALUATION STEPS    100000
Info: OUTPUT ENERGY PRECISION 4
Info: CROSSTERM ENERGY INCLUDED IN DIHEDRAL
Info: TIMING OUTPUT STEPS    1000000
Info: PRESSURE OUTPUT STEPS  100000
Info: FIXED ATOMS ACTIVE
Info: LANGEVIN DYNAMICS ACTIVE
Info: LANGEVIN TEMPERATURE   30
Info: LANGEVIN USING BBK INTEGRATOR
Info: LANGEVIN DAMPING COEFFICIENT IS 1 INVERSE PS
Info: LANGEVIN DYNAMICS APPLIED TO HYDROGENS
Info: LANGEVIN PISTON PRESSURE CONTROL ACTIVE
Info:        TARGET PRESSURE IS 1.01325 BAR
Info:     OSCILLATION PERIOD IS 50 FS
Info:             DECAY TIME IS 25 FS
Info:     PISTON TEMPERATURE IS 300 K
Info:       PRESSURE CONTROL IS GROUP-BASED
Info:    INITIAL STRAIN RATE IS 0 0 0
Info:       CELL FLUCTUATION IS ISOTROPIC
Info: PARTICLE MESH EWALD (PME) ACTIVE
Info: PME TOLERANCE               1e-06
Info: PME EWALD COEFFICIENT       0.348832
Info: PME INTERPOLATION ORDER     4
Info: PME GRID DIMENSIONS         40 36 32
Info: PME MAXIMUM GRID SPACING    1
Info: FULL ELECTROSTATIC EVALUATION FREQUENCY      2
Info: USING VERLET I (r-RESPA) MTS SCHEME.
Info: C1 SPLITTING OF LONG RANGE ELECTROSTATICS
Info: PLACING ATOMS IN PATCHES BY HYDROGEN GROUPS
Info: RIGID BONDS TO HYDROGEN : ALL
Info:         ERROR TOLERANCE : 1e-08
Info:          MAX ITERATIONS : 100
Info: RIGID WATER USING SETTLE ALGORITHM
Info: RANDOM NUMBER SEED     1744726355
Info: USE HYDROGEN BONDS?    NO
Info: Using AMBER format force field!
Info: AMBER PARM FILE        mobley_6359156.prmtop
Info: COORDINATE PDB         mobley_6359156.pdb
Info: Exclusions will be read from PARM file!
Info: SCNB (VDW SCALING)     2
Info: USING ARITHMETIC MEAN TO COMBINE L-J SIGMA PARAMETERS
Info: BINARY COORDINATES     mobley_6359156_min.coor
Info: SUMMARY OF PARAMETERS:
Info: 7 BONDS
Info: 8 ANGLES
Info:   8 HARMONIC
Info:   0 COSINE-BASED
Info: 3 DIHEDRAL
Info: 0 IMPROPER
Info: 0 CROSSTERM
Info: 0 VDW
Info: 15 VDW_PAIRS
Info: 0 NBTHOLE_PAIRS
Info: STRUCTURE SUMMARY:
Info: 2956 ATOMS
Info: 2957 BONDS
Info: 36 ANGLES
Info: 64 DIHEDRALS
Info: 0 IMPROPERS
Info: 0 CROSSTERMS
Info: 3039 EXCLUSIONS
Info: 22 FIXED ATOMS
Info: 2942 RIGID BONDS
Info: 8 RIGID BONDS BETWEEN FIXED ATOMS
Info: 5868 DEGREES OF FREEDOM
Info: 992 HYDROGEN GROUPS
Info: 3 ATOMS IN LARGEST HYDROGEN GROUP
Info: 992 MIGRATION GROUPS
Info: 3 ATOMS IN LARGEST MIGRATION GROUP
Info: 14 HYDROGEN GROUPS WITH ALL ATOMS FIXED
Info: TOTAL MASS = 17842.7 amu
Info: TOTAL CHARGE = -0.000100006 e
Info: MASS DENSITY = 0.675913 g/cm^3
Info: ATOM DENSITY = 0.0674333 atoms/A^3
Info: ADDED 0 IMPLICIT EXCLUSIONS
Info: NONBONDED TABLE R-SQUARED SPACING: 0.0625
Info: NONBONDED TABLE SIZE: 705 POINTS
Info: REMOVING COM VELOCITY 0.0958902 0.121275 0.0504894
TCL: Running for 100000 steps
ETITLE: TS BOND ANGLE DIHED IMPRP ELECT VDW BOUNDARY MISC KINETIC TOTAL TEMP POTENTIAL TOTAL3 TEMPAVG PRESSURE GPRESSURE VOLUME PRESSAVG GPRESSAVG
ENERGY: 0 0.0000 0.0000 0.0000 0.0000 -13642.8648 2380.6898 0.0000 0.0000 1758.8296 -9503.3455 301.6644 -11262.1750 -9503.0026 301.6644 271.2912 296.1595 43835.8844 271.2912 296.1595
ENERGY: 100000 0.0000 0.0000 0.0000 0.0000 -14259.4039 2556.0902 0.0000 0.0000 170.1257 -11533.1880 29.1790 -11703.3137 -11533.1008 30.8920 621.1605 663.3264 29641.1342 4.1852 4.1235
TCL: Running 100000 steps at 60 kelvin.
TCL: Setting parameter langevinTemp to 60
TCL: Running for 100000 steps
ETITLE: TS BOND ANGLE DIHED IMPRP ELECT VDW BOUNDARY MISC KINETIC TOTAL TEMP POTENTIAL TOTAL3 TEMPAVG PRESSURE GPRESSURE VOLUME PRESSAVG GPRESSAVG
ENERGY: 100000 0.0000 0.0000 0.0000 0.0000 -14259.4039 2556.0902 0.0000 0.0000 170.0397 -11533.2740 29.1642 -11703.3137 -11533.0070 29.1642 612.2046 663.1136 29641.1342 612.2046 663.1136
ENERGY: 200000 0.0000 0.0000 0.0000 0.0000 -14174.3148 2479.9976 0.0000 0.0000 352.7531 -11341.5641 60.5022 -11694.3172 -11340.6856 60.0659 12.8987 48.5397 29537.4849 3.8967 3.8357
TCL: Running 100000 steps at 90 kelvin.
TCL: Setting parameter langevinTemp to 90
TCL: Running for 100000 steps
ETITLE: TS BOND ANGLE DIHED IMPRP ELECT VDW BOUNDARY MISC KINETIC TOTAL TEMP POTENTIAL TOTAL3 TEMPAVG PRESSURE GPRESSURE VOLUME PRESSAVG GPRESSAVG
ENERGY: 200000 0.0000 0.0000 0.0000 0.0000 -14174.3148 2479.9976 0.0000 0.0000 352.5771 -11341.7401 60.4720 -11694.3172 -11340.9761 60.4720 2.2384 48.4981 29537.4849 2.2384 48.4981
ENERGY: 300000 0.0000 0.0000 0.0000 0.0000 -13961.4060 2404.0236 0.0000 0.0000 524.9112 -11032.4712 90.0298 -11557.3824 -11031.1114 90.0161 111.4003 122.8285 29429.3398 3.5623 3.5760
TCL: Running 100000 steps at 120 kelvin.
TCL: Setting parameter langevinTemp to 120
TCL: Running for 100000 steps
ETITLE: TS BOND ANGLE DIHED IMPRP ELECT VDW BOUNDARY MISC KINETIC TOTAL TEMP POTENTIAL TOTAL3 TEMPAVG PRESSURE GPRESSURE VOLUME PRESSAVG GPRESSAVG
ENERGY: 300000 0.0000 0.0000 0.0000 0.0000 -13961.4060 2404.0236 0.0000 0.0000 524.6461 -11032.7363 89.9843 -11557.3824 -11031.8674 89.9843 69.7552 122.8075 29429.3398 69.7552 122.8075
ENERGY: 400000 0.0000 0.0000 0.0000 0.0000 -13665.4388 2207.7899 0.0000 0.0000 699.7495 -10757.8994 120.0170 -11457.6489 -10755.3253 119.7805 -1160.8948 -1122.3187 29634.5511 4.6286 4.4863
TCL: Running 100000 steps at 150 kelvin.
TCL: Setting parameter langevinTemp to 150
TCL: Running for 100000 steps
ETITLE: TS BOND ANGLE DIHED IMPRP ELECT VDW BOUNDARY MISC KINETIC TOTAL TEMP POTENTIAL TOTAL3 TEMPAVG PRESSURE GPRESSURE VOLUME PRESSAVG GPRESSAVG
ENERGY: 400000 0.0000 0.0000 0.0000 0.0000 -13665.4388 2207.7899 0.0000 0.0000 699.4065 -10758.2425 119.9582 -11457.6489 -10756.9260 119.9582 -1176.2599 -1121.2233 29634.5511 -1176.2599 -1121.2233
ENERGY: 500000 0.0000 0.0000 0.0000 0.0000 -13421.8638 2151.0688 0.0000 0.0000 879.8069 -10390.9881 150.8994 -11270.7950 -10388.4938 150.2573 -917.0425 -867.0037 29449.4064 3.7497 3.7411
TCL: Running 100000 steps at 180 kelvin.
TCL: Setting parameter langevinTemp to 180
TCL: Running for 100000 steps
ETITLE: TS BOND ANGLE DIHED IMPRP ELECT VDW BOUNDARY MISC KINETIC TOTAL TEMP POTENTIAL TOTAL3 TEMPAVG PRESSURE GPRESSURE VOLUME PRESSAVG GPRESSAVG
ENERGY: 500000 0.0000 0.0000 0.0000 0.0000 -13421.8638 2151.0688 0.0000 0.0000 879.3627 -10391.4323 150.8233 -11270.7950 -10389.5512 150.8233 -923.1546 -866.9683 29449.4064 -923.1546 -866.9683
ENERGY: 600000 0.0000 0.0000 0.0000 0.0000 -13013.2985 2012.6597 0.0000 0.0000 1059.3411 -9941.2977 181.6921 -11000.6388 -9938.1728 179.4088 -564.8727 -550.6950 28863.2174 3.2349 3.2044
TCL: Running 100000 steps at 210 kelvin.
TCL: Setting parameter langevinTemp to 210
TCL: Running for 100000 steps
ETITLE: TS BOND ANGLE DIHED IMPRP ELECT VDW BOUNDARY MISC KINETIC TOTAL TEMP POTENTIAL TOTAL3 TEMPAVG PRESSURE GPRESSURE VOLUME PRESSAVG GPRESSAVG
ENERGY: 600000 0.0000 0.0000 0.0000 0.0000 -13013.2985 2012.6597 0.0000 0.0000 1058.8145 -9941.8243 181.6018 -11000.6388 -9939.7617 181.6018 -613.4556 -550.5080 28863.2174 -613.4556 -550.5080
ENERGY: 700000 0.0000 0.0000 0.0000 0.0000 -12533.7793 1924.1845 0.0000 0.0000 1215.4545 -9394.1403 208.4678 -10609.5948 -9391.3639 210.2429 106.0478 186.9260 28754.3434 4.0786 3.8323
TCL: Running 100000 steps at 240 kelvin.
TCL: Setting parameter langevinTemp to 240
TCL: Running for 100000 steps
ETITLE: TS BOND ANGLE DIHED IMPRP ELECT VDW BOUNDARY MISC KINETIC TOTAL TEMP POTENTIAL TOTAL3 TEMPAVG PRESSURE GPRESSURE VOLUME PRESSAVG GPRESSAVG
ENERGY: 700000 0.0000 0.0000 0.0000 0.0000 -12533.7793 1924.1845 0.0000 0.0000 1214.8280 -9394.7668 208.3603 -10609.5948 -9392.6679 208.3603 106.0010 187.9226 28754.3434 106.0010 187.9226
ENERGY: 800000 0.0000 0.0000 0.0000 0.0000 -11734.5279 1682.6177 0.0000 0.0000 1402.3338 -8649.5764 240.5203 -10051.9101 -8646.0527 239.9024 -269.1336 -141.9882 29520.2658 5.1070 5.2300
TCL: Running 100000 steps at 270 kelvin.
TCL: Setting parameter langevinTemp to 270
TCL: Running for 100000 steps
ETITLE: TS BOND ANGLE DIHED IMPRP ELECT VDW BOUNDARY MISC KINETIC TOTAL TEMP POTENTIAL TOTAL3 TEMPAVG PRESSURE GPRESSURE VOLUME PRESSAVG GPRESSAVG
ENERGY: 800000 0.0000 0.0000 0.0000 0.0000 -11734.5278 1682.6177 0.0000 0.0000 1401.6315 -8650.2786 240.3998 -10051.9101 -8648.0695 240.3998 -232.1135 -141.2975 29520.2658 -232.1135 -141.2975
ENERGY: 900000 0.0000 0.0000 0.0000 0.0000 -11187.9525 1538.4592 0.0000 0.0000 1573.6215 -8075.8718 269.8986 -9649.4933 -8072.7536 270.6171 -170.0569 -104.5123 29887.1197 1.6620 1.6476
TCL: Running 1000000 steps at 300 kelvin.
TCL: Setting parameter langevinTemp to 300
TCL: Running for 1000000 steps
ETITLE: TS BOND ANGLE DIHED IMPRP ELECT VDW BOUNDARY MISC KINETIC TOTAL TEMP POTENTIAL TOTAL3 TEMPAVG PRESSURE GPRESSURE VOLUME PRESSAVG GPRESSAVG
ENERGY: 900000 0.0000 0.0000 0.0000 0.0000 -11187.9525 1538.4592 0.0000 0.0000 1572.8620 -8076.6313 269.7683 -9649.4933 -8074.8440 269.7683 -190.0370 -104.3635 29887.1197 -190.0370 -104.3635
ENERGY: 1100000 0.0000 0.0000 0.0000 0.0000 -10684.5316 1401.6609 0.0000 0.0000 1762.3944 -7520.4763 302.2758 -9282.8707 -7515.8070 300.4547 -237.4897 -157.1280 30472.7357 2.5592 2.4110
ENERGY: 1300000 0.0000 0.0000 0.0000 0.0000 -10810.9878 1521.5784 0.0000 0.0000 1722.8183 -7566.5911 295.4879 -9289.4094 -7564.1602 300.7779 654.4794 753.8975 30492.9092 2.7263 2.5034
ENERGY: 1500000 0.0000 0.0000 0.0000 0.0000 -10481.4640 1314.0418 0.0000 0.0000 1717.7247 -7449.6974 294.6143 -9167.4221 -7445.4468 301.2910 -657.4957 -599.5701 30709.1681 3.4568 3.3788
ENERGY: 1700000 0.0000 0.0000 0.0000 0.0000 -10703.7742 1508.8537 0.0000 0.0000 1679.7879 -7515.1325 288.1076 -9194.9204 -7513.6044 299.7057 611.6582 675.1640 30804.3615 1.5676 1.7026
ENERGY: 1900000 0.0000 0.0000 0.0000 0.0000 -10549.6423 1354.7089 0.0000 0.0000 1739.4612 -7455.4723 298.3424 -9194.9334 -7451.9687 300.5059 -588.7449 -532.1506 30994.9628 2.7298 2.6723
TCL: Exiting due to exit command.
