Info: SIMULATION PARAMETERS:
Info: TIMESTEP               2
Info: NUMBER OF STEPS        0
Info: STEPS PER CYCLE        10
Info: PERIODIC CELL BASIS 1  38.156 0 0
Info: PERIODIC CELL BASIS 2  0 34.26 0
Info: PERIODIC CELL BASIS 3  0 0 34.229
Info: PERIODIC CELL CENTER   0 0 0
Info: WRAPPING WATERS AROUND PERIODIC BOUNDARIES ON OUTPUT.
Info: WRAPPING ALL CLUSTERS AROUND PERIODIC BOUNDARIES ON OUTPUT.
Info: FIRST LDB TIMESTEP     50
Info: LAST LDB TIMESTEP     -1
Info: HOM BACKGROUND SCALING 1
Info: PME BACKGROUND SCALING 1
Info: MIN ATOMS PER PATCH    40
Info: EMPTY PATCH LOAD       40 ATOMS
Info: INITIAL TEMPERATURE    300
Info: CENTER OF MASS MOVING INITIALLY? NO
Info: DIELECTRIC             1
Info: EXCLUDE                SCALED ONE-FOUR
Info: 1-4 ELECTROSTATICS SCALED BY 0.833333
Info: MODIFIED 1-4 VDW PARAMETERS WILL BE USED
Info: DCD FILENAME           mobley_628951_equil.dcd
Info: DCD FREQUENCY          100000
Info: DCD FIRST STEP         100000
Info: DCD FILE WILL CONTAIN UNIT CELL DATA
Info: XST FILENAME           mobley_628951_equil.xst
Info: XST FREQUENCY          100000
Info: NO VELOCITY DCD OUTPUT
Info: NO FORCE DCD OUTPUT
Info: OUTPUT FILENAME        mobley_628951_equil
Info: BINARY OUTPUT FILES WILL BE USED
Info: RESTART FILENAME       mobley_628951_equil.restart
Info: RESTART FREQUENCY      100000
Info: BINARY RESTART FILES WILL BE USED
Info: CUTOFF                 9
Info: PAIRLIST DISTANCE      11
Info: PAIRLIST SHRINK RATE   0.01
Info: PAIRLIST GROW RATE     0.01
Info: PAIRLIST TRIGGER       0.3
Info: PAIRLISTS PER CYCLE    2
Info: PAIRLISTS ENABLED
Info: MARGIN                 8
Info: HYDROGEN GROUP CUTOFF  2.5
Info: PATCH DIMENSION        21.5
Info: ENERGY OUTPUT STEPS    100000
Info: ENERGY EVALUATION STEPS    100000
Info: OUTPUT ENERGY PRECISION 4
Info: CROSSTERM ENERGY INCLUDED IN DIHEDRAL
Info: TIMING OUTPUT STEPS    1000000
Info: PRESSURE OUTPUT STEPS  100000
Info: FIXED ATOMS ACTIVE
Info: LANGEVIN DYNAMICS ACTIVE
Info: LANGEVIN TEMPERATURE   30
Info: LANGEVIN USING BBK INTEGRATOR
Info: LANGEVIN DAMPING COEFFICIENT IS 1 INVERSE PS
Info: LANGEVIN DYNAMICS APPLIED TO HYDROGENS
Info: LANGEVIN PISTON PRESSURE CONTROL ACTIVE
Info:        TARGET PRESSURE IS 1.01325 BAR
Info:     OSCILLATION PERIOD IS 50 FS
Info:             DECAY TIME IS 25 FS
Info:     PISTON TEMPERATURE IS 300 K
Info:       PRESSURE CONTROL IS GROUP-BASED
Info:    INITIAL STRAIN RATE IS 0 0 0
Info:       CELL FLUCTUATION IS ISOTROPIC
Info: PARTICLE MESH EWALD (PME) ACTIVE
Info: PME TOLERANCE               1e-06
Info: PME EWALD COEFFICIENT       0.348832
Info: PME INTERPOLATION ORDER     4
Info: PME GRID DIMENSIONS         40 36 36
Info: PME MAXIMUM GRID SPACING    1
Info: FULL ELECTROSTATIC EVALUATION FREQUENCY      2
Info: USING VERLET I (r-RESPA) MTS SCHEME.
Info: C1 SPLITTING OF LONG RANGE ELECTROSTATICS
Info: PLACING ATOMS IN PATCHES BY HYDROGEN GROUPS
Info: RIGID BONDS TO HYDROGEN : ALL
Info:         ERROR TOLERANCE : 1e-08
Info:          MAX ITERATIONS : 100
Info: RIGID WATER USING SETTLE ALGORITHM
Info: RANDOM NUMBER SEED     1744726317
Info: USE HYDROGEN BONDS?    NO
Info: Using AMBER format force field!
Info: AMBER PARM FILE        mobley_628951.prmtop
Info: COORDINATE PDB         mobley_628951.pdb
Info: Exclusions will be read from PARM file!
Info: SCNB (VDW SCALING)     2
Info: USING ARITHMETIC MEAN TO COMBINE L-J SIGMA PARAMETERS
Info: BINARY COORDINATES     mobley_628951_min.coor
Info: SUMMARY OF PARAMETERS:
Info: 7 BONDS
Info: 7 ANGLES
Info:   7 HARMONIC
Info:   0 COSINE-BASED
Info: 3 DIHEDRAL
Info: 0 IMPROPER
Info: 0 CROSSTERM
Info: 0 VDW
Info: 15 VDW_PAIRS
Info: 0 NBTHOLE_PAIRS
Info: STRUCTURE SUMMARY:
Info: 2965 ATOMS
Info: 2966 BONDS
Info: 36 ANGLES
Info: 64 DIHEDRALS
Info: 0 IMPROPERS
Info: 0 CROSSTERMS
Info: 3048 EXCLUSIONS
Info: 22 FIXED ATOMS
Info: 2949 RIGID BONDS
Info: 6 RIGID BONDS BETWEEN FIXED ATOMS
Info: 5886 DEGREES OF FREEDOM
Info: 997 HYDROGEN GROUPS
Info: 3 ATOMS IN LARGEST HYDROGEN GROUP
Info: 997 MIGRATION GROUPS
Info: 3 ATOMS IN LARGEST MIGRATION GROUP
Info: 16 HYDROGEN GROUPS WITH ALL ATOMS FIXED
Info: TOTAL MASS = 17965.7 amu
Info: TOTAL CHARGE = 0.000399984 e
Info: MASS DENSITY = 0.666742 g/cm^3
Info: ATOM DENSITY = 0.0662644 atoms/A^3
Info: ADDED 0 IMPLICIT EXCLUSIONS
Info: NONBONDED TABLE R-SQUARED SPACING: 0.0625
Info: NONBONDED TABLE SIZE: 705 POINTS
Info: REMOVING COM VELOCITY -0.0602728 -0.0231878 0.0525548
TCL: Running for 100000 steps
ETITLE: TS BOND ANGLE DIHED IMPRP ELECT VDW BOUNDARY MISC KINETIC TOTAL TEMP POTENTIAL TOTAL3 TEMPAVG PRESSURE GPRESSURE VOLUME PRESSAVG GPRESSAVG
ENERGY: 0 0.0000 0.0000 0.0000 0.0000 -13671.5438 2388.8173 0.0000 0.0000 1722.1219 -9560.6047 294.4652 -11282.7265 -9560.2863 294.4652 128.9742 168.5403 44744.9895 128.9742 168.5403
ENERGY: 100000 0.0000 0.0000 0.0000 0.0000 -14271.8125 2473.1760 0.0000 0.0000 175.3469 -11623.2895 29.9825 -11798.6364 -11622.6544 30.8632 -111.8151 -42.8027 29126.8592 3.9655 3.9178
TCL: Running 100000 steps at 60 kelvin.
TCL: Setting parameter langevinTemp to 60
TCL: Running for 100000 steps
ETITLE: TS BOND ANGLE DIHED IMPRP ELECT VDW BOUNDARY MISC KINETIC TOTAL TEMP POTENTIAL TOTAL3 TEMPAVG PRESSURE GPRESSURE VOLUME PRESSAVG GPRESSAVG
ENERGY: 100000 0.0000 0.0000 0.0000 0.0000 -14271.8125 2473.1760 0.0000 0.0000 175.2588 -11623.3776 29.9675 -11798.6364 -11623.0032 29.9675 -104.1331 -42.7259 29126.8592 -104.1331 -42.7259
ENERGY: 200000 0.0000 0.0000 0.0000 0.0000 -14152.6553 2417.4314 0.0000 0.0000 353.3006 -11381.9233 60.4108 -11735.2239 -11380.6158 59.9402 -194.1866 -147.8132 29025.2414 3.7349 3.7330
TCL: Running 100000 steps at 90 kelvin.
TCL: Setting parameter langevinTemp to 90
TCL: Running for 100000 steps
ETITLE: TS BOND ANGLE DIHED IMPRP ELECT VDW BOUNDARY MISC KINETIC TOTAL TEMP POTENTIAL TOTAL3 TEMPAVG PRESSURE GPRESSURE VOLUME PRESSAVG GPRESSAVG
ENERGY: 200000 0.0000 0.0000 0.0000 0.0000 -14152.6553 2417.4314 0.0000 0.0000 353.1233 -11382.1006 60.3805 -11735.2239 -11381.4228 60.3805 -199.7701 -147.7355 29025.2414 -199.7701 -147.7355
ENERGY: 300000 0.0000 0.0000 0.0000 0.0000 -13940.8515 2334.8526 0.0000 0.0000 518.9774 -11087.0214 88.7398 -11605.9988 -11085.3585 90.0348 -395.9203 -350.6165 29062.4545 3.4783 3.4217
TCL: Running 100000 steps at 120 kelvin.
TCL: Setting parameter langevinTemp to 120
TCL: Running for 100000 steps
ETITLE: TS BOND ANGLE DIHED IMPRP ELECT VDW BOUNDARY MISC KINETIC TOTAL TEMP POTENTIAL TOTAL3 TEMPAVG PRESSURE GPRESSURE VOLUME PRESSAVG GPRESSAVG
ENERGY: 300000 0.0000 0.0000 0.0000 0.0000 -13940.8515 2334.8526 0.0000 0.0000 518.7065 -11087.2924 88.6935 -11605.9988 -11086.2345 88.6935 -398.5547 -350.2985 29062.4545 -398.5547 -350.2985
ENERGY: 400000 0.0000 0.0000 0.0000 0.0000 -13794.3260 2312.0215 0.0000 0.0000 694.3540 -10787.9505 118.7274 -11482.3045 -10785.7342 119.8096 -223.9399 -127.7350 29235.7152 4.8499 4.7717
TCL: Running 100000 steps at 150 kelvin.
TCL: Setting parameter langevinTemp to 150
TCL: Running for 100000 steps
ETITLE: TS BOND ANGLE DIHED IMPRP ELECT VDW BOUNDARY MISC KINETIC TOTAL TEMP POTENTIAL TOTAL3 TEMPAVG PRESSURE GPRESSURE VOLUME PRESSAVG GPRESSAVG
ENERGY: 400000 0.0000 0.0000 0.0000 0.0000 -13794.3260 2312.0215 0.0000 0.0000 694.0158 -10788.2887 118.6696 -11482.3045 -10786.7013 118.6696 -175.1770 -127.2781 29235.7152 -175.1770 -127.2781
ENERGY: 500000 0.0000 0.0000 0.0000 0.0000 -13580.6179 2242.0943 0.0000 0.0000 870.0506 -10468.4730 148.7697 -11338.5236 -10466.7745 149.7907 -15.0620 83.3549 28876.8424 5.0113 5.0966
TCL: Running 100000 steps at 180 kelvin.
TCL: Setting parameter langevinTemp to 180
TCL: Running for 100000 steps
ETITLE: TS BOND ANGLE DIHED IMPRP ELECT VDW BOUNDARY MISC KINETIC TOTAL TEMP POTENTIAL TOTAL3 TEMPAVG PRESSURE GPRESSURE VOLUME PRESSAVG GPRESSAVG
ENERGY: 500000 0.0000 0.0000 0.0000 0.0000 -13580.6179 2242.0943 0.0000 0.0000 869.6107 -10468.9129 148.6945 -11338.5236 -10466.9834 148.6945 40.3551 83.4696 28876.8424 40.3551 83.4696
ENERGY: 600000 0.0000 0.0000 0.0000 0.0000 -13135.4591 2100.7701 0.0000 0.0000 1040.3794 -9994.3096 177.8942 -11034.6889 -9990.8983 179.9473 -260.8720 -198.4164 29418.5251 4.0604 4.1045
TCL: Running 100000 steps at 210 kelvin.
TCL: Setting parameter langevinTemp to 210
TCL: Running for 100000 steps
ETITLE: TS BOND ANGLE DIHED IMPRP ELECT VDW BOUNDARY MISC KINETIC TOTAL TEMP POTENTIAL TOTAL3 TEMPAVG PRESSURE GPRESSURE VOLUME PRESSAVG GPRESSAVG
ENERGY: 600000 0.0000 0.0000 0.0000 0.0000 -13135.4591 2100.7701 0.0000 0.0000 1039.8427 -9994.8462 177.8025 -11034.6889 -9993.4268 177.8025 -283.7679 -196.4669 29418.5251 -283.7679 -196.4669
ENERGY: 700000 0.0000 0.0000 0.0000 0.0000 -12397.9603 1842.5528 0.0000 0.0000 1239.0576 -9316.3499 211.8662 -10555.4074 -9314.5152 210.3446 -327.1094 -255.6936 28971.8116 3.6813 3.7832
TCL: Running 100000 steps at 240 kelvin.
TCL: Setting parameter langevinTemp to 240
TCL: Running for 100000 steps
ETITLE: TS BOND ANGLE DIHED IMPRP ELECT VDW BOUNDARY MISC KINETIC TOTAL TEMP POTENTIAL TOTAL3 TEMPAVG PRESSURE GPRESSURE VOLUME PRESSAVG GPRESSAVG
ENERGY: 700000 0.0000 0.0000 0.0000 0.0000 -12397.9603 1842.5528 0.0000 0.0000 1238.4536 -9316.9539 211.7629 -10555.4074 -9315.1230 211.7629 -347.4294 -256.9434 28971.8116 -347.4294 -256.9434
ENERGY: 800000 0.0000 0.0000 0.0000 0.0000 -11831.9642 1742.3043 0.0000 0.0000 1380.5274 -8709.1325 236.0561 -10089.6599 -8707.7224 240.4568 68.0962 143.6025 29577.4295 3.3294 3.2191
TCL: Running 100000 steps at 270 kelvin.
TCL: Setting parameter langevinTemp to 270
TCL: Running for 100000 steps
ETITLE: TS BOND ANGLE DIHED IMPRP ELECT VDW BOUNDARY MISC KINETIC TOTAL TEMP POTENTIAL TOTAL3 TEMPAVG PRESSURE GPRESSURE VOLUME PRESSAVG GPRESSAVG
ENERGY: 800000 0.0000 0.0000 0.0000 0.0000 -11831.9642 1742.3043 0.0000 0.0000 1379.8498 -8709.8101 235.9402 -10089.6599 -8708.2577 235.9402 55.9462 143.3468 29577.4295 55.9462 143.3468
ENERGY: 900000 0.0000 0.0000 0.0000 0.0000 -11292.9738 1581.5742 0.0000 0.0000 1596.7357 -8114.6639 273.0255 -9711.3996 -8111.9715 269.7441 103.8170 206.9316 29713.4403 4.0514 4.1127
TCL: Running 1000000 steps at 300 kelvin.
TCL: Setting parameter langevinTemp to 300
TCL: Running for 1000000 steps
ETITLE: TS BOND ANGLE DIHED IMPRP ELECT VDW BOUNDARY MISC KINETIC TOTAL TEMP POTENTIAL TOTAL3 TEMPAVG PRESSURE GPRESSURE VOLUME PRESSAVG GPRESSAVG
ENERGY: 900000 0.0000 0.0000 0.0000 0.0000 -11292.9738 1581.5742 0.0000 0.0000 1595.9658 -8115.4338 272.8938 -9711.3996 -8113.3756 272.8938 115.0975 206.0332 29713.4403 115.0975 206.0332
ENERGY: 1100000 0.0000 0.0000 0.0000 0.0000 -10717.4111 1471.6408 0.0000 0.0000 1740.3337 -7505.4366 297.5793 -9245.7703 -7501.7381 300.1063 489.0702 515.5504 30630.9363 2.7575 2.6427
ENERGY: 1300000 0.0000 0.0000 0.0000 0.0000 -10686.5953 1436.2099 0.0000 0.0000 1813.0265 -7437.3588 310.0090 -9250.3854 -7434.7567 300.7957 249.8913 343.8007 30621.2189 2.3739 2.5184
ENERGY: 1500000 0.0000 0.0000 0.0000 0.0000 -10800.6260 1506.7317 0.0000 0.0000 1801.3742 -7492.5201 308.0166 -9293.8943 -7487.4969 299.7373 869.7980 1024.5384 30164.4142 2.8325 2.8673
ENERGY: 1700000 0.0000 0.0000 0.0000 0.0000 -10616.9637 1357.0197 0.0000 0.0000 1766.4183 -7493.5256 302.0395 -9259.9439 -7489.4813 300.1121 -671.6871 -482.8417 30782.5498 3.0076 3.1485
ENERGY: 1900000 0.0000 0.0000 0.0000 0.0000 -10709.5190 1358.6177 0.0000 0.0000 1779.5220 -7571.3793 304.2801 -9350.9013 -7568.4735 300.0692 -672.3133 -579.8643 30591.3785 1.6474 1.5451
TCL: Exiting due to exit command.
