Info: SIMULATION PARAMETERS:
Info: TIMESTEP               2
Info: NUMBER OF STEPS        0
Info: STEPS PER CYCLE        10
Info: PERIODIC CELL BASIS 1  37.435 0 0
Info: PERIODIC CELL BASIS 2  0 34.26 0
Info: PERIODIC CELL BASIS 3  0 0 33.876
Info: PERIODIC CELL CENTER   0 0 0
Info: WRAPPING WATERS AROUND PERIODIC BOUNDARIES ON OUTPUT.
Info: WRAPPING ALL CLUSTERS AROUND PERIODIC BOUNDARIES ON OUTPUT.
Info: FIRST LDB TIMESTEP     50
Info: LAST LDB TIMESTEP     -1
Info: HOM BACKGROUND SCALING 1
Info: PME BACKGROUND SCALING 1
Info: MIN ATOMS PER PATCH    40
Info: EMPTY PATCH LOAD       40 ATOMS
Info: INITIAL TEMPERATURE    300
Info: CENTER OF MASS MOVING INITIALLY? NO
Info: DIELECTRIC             1
Info: EXCLUDE                SCALED ONE-FOUR
Info: 1-4 ELECTROSTATICS SCALED BY 0.833333
Info: MODIFIED 1-4 VDW PARAMETERS WILL BE USED
Info: DCD FILENAME           mobley_2802855_equil.dcd
Info: DCD FREQUENCY          100000
Info: DCD FIRST STEP         100000
Info: DCD FILE WILL CONTAIN UNIT CELL DATA
Info: XST FILENAME           mobley_2802855_equil.xst
Info: XST FREQUENCY          100000
Info: NO VELOCITY DCD OUTPUT
Info: NO FORCE DCD OUTPUT
Info: OUTPUT FILENAME        mobley_2802855_equil
Info: BINARY OUTPUT FILES WILL BE USED
Info: RESTART FILENAME       mobley_2802855_equil.restart
Info: RESTART FREQUENCY      100000
Info: BINARY RESTART FILES WILL BE USED
Info: CUTOFF                 9
Info: PAIRLIST DISTANCE      11
Info: PAIRLIST SHRINK RATE   0.01
Info: PAIRLIST GROW RATE     0.01
Info: PAIRLIST TRIGGER       0.3
Info: PAIRLISTS PER CYCLE    2
Info: PAIRLISTS ENABLED
Info: MARGIN                 8
Info: HYDROGEN GROUP CUTOFF  2.5
Info: PATCH DIMENSION        21.5
Info: ENERGY OUTPUT STEPS    100000
Info: ENERGY EVALUATION STEPS    100000
Info: OUTPUT ENERGY PRECISION 4
Info: CROSSTERM ENERGY INCLUDED IN DIHEDRAL
Info: TIMING OUTPUT STEPS    1000000
Info: PRESSURE OUTPUT STEPS  100000
Info: FIXED ATOMS ACTIVE
Info: LANGEVIN DYNAMICS ACTIVE
Info: LANGEVIN TEMPERATURE   30
Info: LANGEVIN USING BBK INTEGRATOR
Info: LANGEVIN DAMPING COEFFICIENT IS 1 INVERSE PS
Info: LANGEVIN DYNAMICS APPLIED TO HYDROGENS
Info: LANGEVIN PISTON PRESSURE CONTROL ACTIVE
Info:        TARGET PRESSURE IS 1.01325 BAR
Info:     OSCILLATION PERIOD IS 50 FS
Info:             DECAY TIME IS 25 FS
Info:     PISTON TEMPERATURE IS 300 K
Info:       PRESSURE CONTROL IS GROUP-BASED
Info:    INITIAL STRAIN RATE IS 0 0 0
Info:       CELL FLUCTUATION IS ISOTROPIC
Info: PARTICLE MESH EWALD (PME) ACTIVE
Info: PME TOLERANCE               1e-06
Info: PME EWALD COEFFICIENT       0.348832
Info: PME INTERPOLATION ORDER     4
Info: PME GRID DIMENSIONS         40 36 36
Info: PME MAXIMUM GRID SPACING    1
Info: FULL ELECTROSTATIC EVALUATION FREQUENCY      2
Info: USING VERLET I (r-RESPA) MTS SCHEME.
Info: C1 SPLITTING OF LONG RANGE ELECTROSTATICS
Info: PLACING ATOMS IN PATCHES BY HYDROGEN GROUPS
Info: RIGID BONDS TO HYDROGEN : ALL
Info:         ERROR TOLERANCE : 1e-08
Info:          MAX ITERATIONS : 100
Info: RIGID WATER USING SETTLE ALGORITHM
Info: RANDOM NUMBER SEED     1744764614
Info: USE HYDROGEN BONDS?    NO
Info: Using AMBER format force field!
Info: AMBER PARM FILE        mobley_2802855.prmtop
Info: COORDINATE PDB         mobley_2802855.pdb
Info: Exclusions will be read from PARM file!
Info: SCNB (VDW SCALING)     2
Info: USING ARITHMETIC MEAN TO COMBINE L-J SIGMA PARAMETERS
Info: BINARY COORDINATES     mobley_2802855_min.coor
Info: SUMMARY OF PARAMETERS:
Info: 6 BONDS
Info: 7 ANGLES
Info: 8 DIHEDRAL
Info: 0 IMPROPER
Info: 0 CROSSTERM
Info: 0 VDW
Info: 21 VDW_PAIRS
Info: 0 NBTHOLE_PAIRS
Info: STRUCTURE SUMMARY:
Info: 2954 ATOMS
Info: 2953 BONDS
Info: 24 ANGLES
Info: 31 DIHEDRALS
Info: 0 IMPROPERS
Info: 0 CROSSTERMS
Info: 3004 EXCLUSIONS
Info: 14 FIXED ATOMS
Info: 2949 RIGID BONDS
Info: 9 RIGID BONDS BETWEEN FIXED ATOMS
Info: 5880 DEGREES OF FREEDOM
Info: 985 HYDROGEN GROUPS
Info: 4 ATOMS IN LARGEST HYDROGEN GROUP
Info: 985 MIGRATION GROUPS
Info: 4 ATOMS IN LARGEST MIGRATION GROUP
Info: 5 HYDROGEN GROUPS WITH ALL ATOMS FIXED
Info: TOTAL MASS = 17792.7 amu
Info: TOTAL CHARGE = -9.99887e-05 e
Info: MASS DENSITY = 0.680054 g/cm^3
Info: ATOM DENSITY = 0.0679913 atoms/A^3
Info: ADDED 0 IMPLICIT EXCLUSIONS
Info: NONBONDED TABLE R-SQUARED SPACING: 0.0625
Info: NONBONDED TABLE SIZE: 705 POINTS
Info: REMOVING COM VELOCITY -0.0554855 -0.0560133 -0.222997
TCL: Running for 100000 steps
ETITLE: TS BOND ANGLE DIHED IMPRP ELECT VDW BOUNDARY MISC KINETIC TOTAL TEMP POTENTIAL TOTAL3 TEMPAVG PRESSURE GPRESSURE VOLUME PRESSAVG GPRESSAVG
ENERGY: 0 0.0000 0.0000 0.0000 0.0000 -13648.0831 2384.4851 0.0000 0.0000 1701.2620 -9562.3361 291.1952 -11263.5981 -9562.0022 291.1952 203.0083 239.1659 43446.7525 203.0083 239.1659
ENERGY: 100000 0.0000 0.0000 0.0000 0.0000 -14188.6099 2476.7975 0.0000 0.0000 176.3683 -11535.4440 30.1879 -11711.8123 -11534.7458 30.9007 140.3315 191.4028 28965.1337 4.5213 4.5349
TCL: Running 100000 steps at 60 kelvin.
TCL: Setting parameter langevinTemp to 60
TCL: Running for 100000 steps
ETITLE: TS BOND ANGLE DIHED IMPRP ELECT VDW BOUNDARY MISC KINETIC TOTAL TEMP POTENTIAL TOTAL3 TEMPAVG PRESSURE GPRESSURE VOLUME PRESSAVG GPRESSAVG
ENERGY: 100000 0.0000 0.0000 0.0000 0.0000 -14188.6099 2476.7975 0.0000 0.0000 176.2827 -11535.5296 30.1733 -11711.8123 -11535.1944 30.1733 125.5271 191.5951 28965.1337 125.5271 191.5951
ENERGY: 200000 0.0000 0.0000 0.0000 0.0000 -14018.0891 2352.6981 0.0000 0.0000 354.3948 -11310.9962 60.6597 -11665.3910 -11310.4918 59.9570 -616.9705 -535.1801 28912.0384 3.2570 3.2055
TCL: Running 100000 steps at 90 kelvin.
TCL: Setting parameter langevinTemp to 90
TCL: Running for 100000 steps
ETITLE: TS BOND ANGLE DIHED IMPRP ELECT VDW BOUNDARY MISC KINETIC TOTAL TEMP POTENTIAL TOTAL3 TEMPAVG PRESSURE GPRESSURE VOLUME PRESSAVG GPRESSAVG
ENERGY: 200000 0.0000 0.0000 0.0000 0.0000 -14018.0891 2352.6981 0.0000 0.0000 354.2224 -11311.1686 60.6302 -11665.3910 -11310.3522 60.6302 -598.7765 -535.0572 28912.0384 -598.7765 -535.0572
ENERGY: 300000 0.0000 0.0000 0.0000 0.0000 -13906.9099 2336.2964 0.0000 0.0000 499.5927 -11071.0209 85.5124 -11570.6136 -11069.4039 89.9421 -145.4296 -106.5810 28496.5309 3.8197 3.6986
TCL: Running 100000 steps at 120 kelvin.
TCL: Setting parameter langevinTemp to 120
TCL: Running for 100000 steps
ETITLE: TS BOND ANGLE DIHED IMPRP ELECT VDW BOUNDARY MISC KINETIC TOTAL TEMP POTENTIAL TOTAL3 TEMPAVG PRESSURE GPRESSURE VOLUME PRESSAVG GPRESSAVG
ENERGY: 300000 0.0000 0.0000 0.0000 0.0000 -13906.9099 2336.2964 0.0000 0.0000 499.3247 -11071.2889 85.4665 -11570.6136 -11070.1748 85.4665 -167.2799 -105.7601 28496.5309 -167.2799 -105.7601
ENERGY: 400000 0.0000 0.0000 0.0000 0.0000 -13716.5836 2283.3486 0.0000 0.0000 710.9492 -10722.2858 121.6891 -11433.2350 -10720.4759 120.1366 -214.4154 -136.5012 28745.5701 3.8379 3.9734
TCL: Running 100000 steps at 150 kelvin.
TCL: Setting parameter langevinTemp to 150
TCL: Running for 100000 steps
ETITLE: TS BOND ANGLE DIHED IMPRP ELECT VDW BOUNDARY MISC KINETIC TOTAL TEMP POTENTIAL TOTAL3 TEMPAVG PRESSURE GPRESSURE VOLUME PRESSAVG GPRESSAVG
ENERGY: 400000 0.0000 0.0000 0.0000 0.0000 -13716.5836 2283.3486 0.0000 0.0000 710.5969 -10722.6380 121.6288 -11433.2350 -10720.9369 121.6288 -188.4884 -136.3958 28745.5701 -188.4884 -136.3958
ENERGY: 500000 0.0000 0.0000 0.0000 0.0000 -13491.1068 2201.3720 0.0000 0.0000 883.1151 -10406.6197 151.1577 -11289.7348 -10404.8816 149.9446 -435.5041 -360.2441 28891.9950 4.6183 4.6211
TCL: Running 100000 steps at 180 kelvin.
TCL: Setting parameter langevinTemp to 180
TCL: Running for 100000 steps
ETITLE: TS BOND ANGLE DIHED IMPRP ELECT VDW BOUNDARY MISC KINETIC TOTAL TEMP POTENTIAL TOTAL3 TEMPAVG PRESSURE GPRESSURE VOLUME PRESSAVG GPRESSAVG
ENERGY: 500000 0.0000 0.0000 0.0000 0.0000 -13491.1068 2201.3720 0.0000 0.0000 882.6809 -10407.0539 151.0834 -11289.7348 -10405.4860 151.0834 -410.1867 -360.5984 28891.9950 -410.1867 -360.5984
ENERGY: 600000 0.0000 0.0000 0.0000 0.0000 -12980.2303 2029.4868 0.0000 0.0000 1024.6588 -9926.0847 175.3850 -10950.7436 -9923.9160 179.9829 -585.0186 -552.1403 28996.4680 2.9172 2.9069
TCL: Running 100000 steps at 210 kelvin.
TCL: Setting parameter langevinTemp to 210
TCL: Running for 100000 steps
ETITLE: TS BOND ANGLE DIHED IMPRP ELECT VDW BOUNDARY MISC KINETIC TOTAL TEMP POTENTIAL TOTAL3 TEMPAVG PRESSURE GPRESSURE VOLUME PRESSAVG GPRESSAVG
ENERGY: 600000 0.0000 0.0000 0.0000 0.0000 -12980.2303 2029.4868 0.0000 0.0000 1024.1574 -9926.5862 175.2991 -10950.7436 -9924.7231 175.2991 -619.9694 -551.8092 28996.4680 -619.9694 -551.8092
ENERGY: 700000 0.0000 0.0000 0.0000 0.0000 -12362.7672 1911.6166 0.0000 0.0000 1181.5782 -9269.5724 202.2439 -10451.1506 -9266.6334 209.7283 467.6754 507.7768 28721.1917 3.8105 3.7191
TCL: Running 100000 steps at 240 kelvin.
TCL: Setting parameter langevinTemp to 240
TCL: Running for 100000 steps
ETITLE: TS BOND ANGLE DIHED IMPRP ELECT VDW BOUNDARY MISC KINETIC TOTAL TEMP POTENTIAL TOTAL3 TEMPAVG PRESSURE GPRESSURE VOLUME PRESSAVG GPRESSAVG
ENERGY: 700000 0.0000 0.0000 0.0000 0.0000 -12362.7672 1911.6166 0.0000 0.0000 1180.9628 -9270.1878 202.1386 -10451.1506 -9268.1347 202.1386 423.8808 507.0095 28721.1917 423.8808 507.0095
ENERGY: 800000 0.0000 0.0000 0.0000 0.0000 -11792.6585 1662.4955 0.0000 0.0000 1357.5834 -8772.5796 232.3697 -10130.1630 -8769.0433 240.3006 -742.4665 -632.3457 29279.8211 2.4873 2.4030
TCL: Running 100000 steps at 270 kelvin.
TCL: Setting parameter langevinTemp to 270
TCL: Running for 100000 steps
ETITLE: TS BOND ANGLE DIHED IMPRP ELECT VDW BOUNDARY MISC KINETIC TOTAL TEMP POTENTIAL TOTAL3 TEMPAVG PRESSURE GPRESSURE VOLUME PRESSAVG GPRESSAVG
ENERGY: 800000 0.0000 0.0000 0.0000 0.0000 -11792.6585 1662.4955 0.0000 0.0000 1356.8949 -8773.2681 232.2519 -10130.1630 -8770.5896 232.2519 -713.4453 -633.3573 29279.8211 -713.4453 -633.3573
ENERGY: 900000 0.0000 0.0000 0.0000 0.0000 -11333.5272 1609.4354 0.0000 0.0000 1578.5439 -8145.5479 270.1903 -9724.0918 -8140.9073 270.1904 113.6697 219.8495 29739.0691 1.5926 1.7830
TCL: Running 1000000 steps at 300 kelvin.
TCL: Setting parameter langevinTemp to 300
TCL: Running for 1000000 steps
ETITLE: TS BOND ANGLE DIHED IMPRP ELECT VDW BOUNDARY MISC KINETIC TOTAL TEMP POTENTIAL TOTAL3 TEMPAVG PRESSURE GPRESSURE VOLUME PRESSAVG GPRESSAVG
ENERGY: 900000 0.0000 0.0000 0.0000 0.0000 -11333.5272 1609.4354 0.0000 0.0000 1577.7229 -8146.3689 270.0498 -9724.0918 -8143.7698 270.0498 129.8928 220.3088 29739.0691 129.8928 220.3088
ENERGY: 1100000 0.0000 0.0000 0.0000 0.0000 -10685.2782 1438.0209 0.0000 0.0000 1762.5338 -7484.7234 301.6828 -9247.2573 -7482.7756 300.2889 -29.4948 71.9933 30410.8284 3.1106 3.0484
ENERGY: 1300000 0.0000 0.0000 0.0000 0.0000 -10513.5744 1362.3954 0.0000 0.0000 1776.4885 -7374.6905 304.0713 -9151.1789 -7372.2557 300.0255 -442.7335 -303.7977 31134.9659 2.6378 2.6288
ENERGY: 1500000 0.0000 0.0000 0.0000 0.0000 -10626.9978 1432.6418 0.0000 0.0000 1776.1279 -7418.2281 304.0096 -9194.3560 -7413.9672 299.9392 255.8312 351.3397 30384.1858 2.3687 2.5505
ENERGY: 1700000 0.0000 0.0000 0.0000 0.0000 -10757.5795 1436.7106 0.0000 0.0000 1776.8180 -7544.0509 304.1277 -9320.8689 -7537.2684 299.5829 -303.9071 -214.2930 30530.6871 3.5163 3.4708
ENERGY: 1900000 0.0000 0.0000 0.0000 0.0000 -10885.0194 1521.5252 0.0000 0.0000 1719.8745 -7643.6196 294.3810 -9363.4942 -7642.6163 300.0639 534.0053 650.7577 29925.4490 4.5522 4.4929
TCL: Exiting due to exit command.
