Info: SIMULATION PARAMETERS:
Info: TIMESTEP               2
Info: NUMBER OF STEPS        0
Info: STEPS PER CYCLE        10
Info: PERIODIC CELL BASIS 1  37.38 0 0
Info: PERIODIC CELL BASIS 2  0 35.779 0
Info: PERIODIC CELL BASIS 3  0 0 33.088
Info: PERIODIC CELL CENTER   0 0 0
Info: WRAPPING WATERS AROUND PERIODIC BOUNDARIES ON OUTPUT.
Info: WRAPPING ALL CLUSTERS AROUND PERIODIC BOUNDARIES ON OUTPUT.
Info: FIRST LDB TIMESTEP     50
Info: LAST LDB TIMESTEP     -1
Info: HOM BACKGROUND SCALING 1
Info: PME BACKGROUND SCALING 1
Info: MIN ATOMS PER PATCH    40
Info: EMPTY PATCH LOAD       40 ATOMS
Info: INITIAL TEMPERATURE    300
Info: CENTER OF MASS MOVING INITIALLY? NO
Info: DIELECTRIC             1
Info: EXCLUDE                SCALED ONE-FOUR
Info: 1-4 ELECTROSTATICS SCALED BY 0.833333
Info: MODIFIED 1-4 VDW PARAMETERS WILL BE USED
Info: DCD FILENAME           mobley_3040612_equil.dcd
Info: DCD FREQUENCY          100000
Info: DCD FIRST STEP         100000
Info: DCD FILE WILL CONTAIN UNIT CELL DATA
Info: XST FILENAME           mobley_3040612_equil.xst
Info: XST FREQUENCY          100000
Info: NO VELOCITY DCD OUTPUT
Info: NO FORCE DCD OUTPUT
Info: OUTPUT FILENAME        mobley_3040612_equil
Info: BINARY OUTPUT FILES WILL BE USED
Info: RESTART FILENAME       mobley_3040612_equil.restart
Info: RESTART FREQUENCY      100000
Info: BINARY RESTART FILES WILL BE USED
Info: CUTOFF                 9
Info: PAIRLIST DISTANCE      11
Info: PAIRLIST SHRINK RATE   0.01
Info: PAIRLIST GROW RATE     0.01
Info: PAIRLIST TRIGGER       0.3
Info: PAIRLISTS PER CYCLE    2
Info: PAIRLISTS ENABLED
Info: MARGIN                 8
Info: HYDROGEN GROUP CUTOFF  2.5
Info: PATCH DIMENSION        21.5
Info: ENERGY OUTPUT STEPS    100000
Info: ENERGY EVALUATION STEPS    100000
Info: OUTPUT ENERGY PRECISION 4
Info: CROSSTERM ENERGY INCLUDED IN DIHEDRAL
Info: TIMING OUTPUT STEPS    1000000
Info: PRESSURE OUTPUT STEPS  100000
Info: FIXED ATOMS ACTIVE
Info: LANGEVIN DYNAMICS ACTIVE
Info: LANGEVIN TEMPERATURE   30
Info: LANGEVIN USING BBK INTEGRATOR
Info: LANGEVIN DAMPING COEFFICIENT IS 1 INVERSE PS
Info: LANGEVIN DYNAMICS APPLIED TO HYDROGENS
Info: LANGEVIN PISTON PRESSURE CONTROL ACTIVE
Info:        TARGET PRESSURE IS 1.01325 BAR
Info:     OSCILLATION PERIOD IS 50 FS
Info:             DECAY TIME IS 25 FS
Info:     PISTON TEMPERATURE IS 300 K
Info:       PRESSURE CONTROL IS GROUP-BASED
Info:    INITIAL STRAIN RATE IS 0 0 0
Info:       CELL FLUCTUATION IS ISOTROPIC
Info: PARTICLE MESH EWALD (PME) ACTIVE
Info: PME TOLERANCE               1e-06
Info: PME EWALD COEFFICIENT       0.348832
Info: PME INTERPOLATION ORDER     4
Info: PME GRID DIMENSIONS         40 36 36
Info: PME MAXIMUM GRID SPACING    1
Info: FULL ELECTROSTATIC EVALUATION FREQUENCY      2
Info: USING VERLET I (r-RESPA) MTS SCHEME.
Info: C1 SPLITTING OF LONG RANGE ELECTROSTATICS
Info: PLACING ATOMS IN PATCHES BY HYDROGEN GROUPS
Info: RIGID BONDS TO HYDROGEN : ALL
Info:         ERROR TOLERANCE : 1e-08
Info:          MAX ITERATIONS : 100
Info: RIGID WATER USING SETTLE ALGORITHM
Info: RANDOM NUMBER SEED     1744725891
Info: USE HYDROGEN BONDS?    NO
Info: Using AMBER format force field!
Info: AMBER PARM FILE        mobley_3040612.prmtop
Info: COORDINATE PDB         mobley_3040612.pdb
Info: Exclusions will be read from PARM file!
Info: SCNB (VDW SCALING)     2
Info: USING ARITHMETIC MEAN TO COMBINE L-J SIGMA PARAMETERS
Info: BINARY COORDINATES     mobley_3040612_min.coor
Info: SUMMARY OF PARAMETERS:
Info: 7 BONDS
Info: 7 ANGLES
Info:   7 HARMONIC
Info:   0 COSINE-BASED
Info: 5 DIHEDRAL
Info: 0 IMPROPER
Info: 0 CROSSTERM
Info: 0 VDW
Info: 21 VDW_PAIRS
Info: 0 NBTHOLE_PAIRS
Info: STRUCTURE SUMMARY:
Info: 2943 ATOMS
Info: 2943 BONDS
Info: 36 ANGLES
Info: 51 DIHEDRALS
Info: 0 IMPROPERS
Info: 0 CROSSTERMS
Info: 3021 EXCLUSIONS
Info: 21 FIXED ATOMS
Info: 2934 RIGID BONDS
Info: 12 RIGID BONDS BETWEEN FIXED ATOMS
Info: 5844 DEGREES OF FREEDOM
Info: 983 HYDROGEN GROUPS
Info: 4 ATOMS IN LARGEST HYDROGEN GROUP
Info: 983 MIGRATION GROUPS
Info: 4 ATOMS IN LARGEST MIGRATION GROUP
Info: 9 HYDROGEN GROUPS WITH ALL ATOMS FIXED
Info: TOTAL MASS = 17667.8 amu
Info: TOTAL CHARGE = 3.72529e-09 e
Info: MASS DENSITY = 0.662984 g/cm^3
Info: ATOM DENSITY = 0.0665047 atoms/A^3
Info: ADDED 0 IMPLICIT EXCLUSIONS
Info: NONBONDED TABLE R-SQUARED SPACING: 0.0625
Info: NONBONDED TABLE SIZE: 705 POINTS
Info: REMOVING COM VELOCITY 0.104484 0.0263834 0.0917517
TCL: Running for 100000 steps
ETITLE: TS BOND ANGLE DIHED IMPRP ELECT VDW BOUNDARY MISC KINETIC TOTAL TEMP POTENTIAL TOTAL3 TEMPAVG PRESSURE GPRESSURE VOLUME PRESSAVG GPRESSAVG
ENERGY: 0 0.0000 0.0000 0.0000 0.0000 -13591.8257 2384.3485 0.0000 0.0000 1784.4911 -9422.9861 307.3226 -11207.4772 -9422.6479 307.3226 378.7875 423.5551 44252.5205 378.7875 423.5551
ENERGY: 100000 0.0000 0.0000 0.0000 0.0000 -14208.2615 2500.7132 0.0000 0.0000 171.4749 -11536.0735 29.5312 -11707.5484 -11535.6324 30.9527 482.6078 525.4725 28783.5821 5.2114 5.2162
TCL: Running 100000 steps at 60 kelvin.
TCL: Setting parameter langevinTemp to 60
TCL: Running for 100000 steps
ETITLE: TS BOND ANGLE DIHED IMPRP ELECT VDW BOUNDARY MISC KINETIC TOTAL TEMP POTENTIAL TOTAL3 TEMPAVG PRESSURE GPRESSURE VOLUME PRESSAVG GPRESSAVG
ENERGY: 100000 0.0000 0.0000 0.0000 0.0000 -14208.2615 2500.7132 0.0000 0.0000 171.3884 -11536.1600 29.5163 -11707.5484 -11535.7600 29.5163 478.9071 525.4335 28783.5821 478.9071 525.4335
ENERGY: 200000 0.0000 0.0000 0.0000 0.0000 -14012.1640 2423.3911 0.0000 0.0000 332.4418 -11256.3311 57.2527 -11588.7729 -11255.8385 59.9676 317.6420 404.4574 28771.9095 3.3495 3.3530
TCL: Running 100000 steps at 90 kelvin.
TCL: Setting parameter langevinTemp to 90
TCL: Running for 100000 steps
ETITLE: TS BOND ANGLE DIHED IMPRP ELECT VDW BOUNDARY MISC KINETIC TOTAL TEMP POTENTIAL TOTAL3 TEMPAVG PRESSURE GPRESSURE VOLUME PRESSAVG GPRESSAVG
ENERGY: 200000 0.0000 0.0000 0.0000 0.0000 -14012.1640 2423.3911 0.0000 0.0000 332.2696 -11256.5034 57.2230 -11588.7729 -11255.9745 57.2230 348.0079 403.7696 28771.9095 348.0079 403.7696
ENERGY: 300000 0.0000 0.0000 0.0000 0.0000 -13842.6207 2346.6335 0.0000 0.0000 522.4779 -10973.5093 89.9804 -11495.9872 -10972.3676 90.0615 9.5281 59.7115 28752.0478 4.0453 3.9948
TCL: Running 100000 steps at 120 kelvin.
TCL: Setting parameter langevinTemp to 120
TCL: Running for 100000 steps
ETITLE: TS BOND ANGLE DIHED IMPRP ELECT VDW BOUNDARY MISC KINETIC TOTAL TEMP POTENTIAL TOTAL3 TEMPAVG PRESSURE GPRESSURE VOLUME PRESSAVG GPRESSAVG
ENERGY: 300000 0.0000 0.0000 0.0000 0.0000 -13842.6207 2346.6335 0.0000 0.0000 522.2143 -10973.7729 89.9350 -11495.9872 -10972.7344 89.9350 11.6252 59.7783 28752.0478 11.6252 59.7783
ENERGY: 400000 0.0000 0.0000 0.0000 0.0000 -13682.4361 2295.5615 0.0000 0.0000 688.4116 -10698.4630 118.5573 -11386.8746 -10696.3499 120.0083 53.0845 81.5807 28582.9306 4.0074 3.8383
TCL: Running 100000 steps at 150 kelvin.
TCL: Setting parameter langevinTemp to 150
TCL: Running for 100000 steps
ETITLE: TS BOND ANGLE DIHED IMPRP ELECT VDW BOUNDARY MISC KINETIC TOTAL TEMP POTENTIAL TOTAL3 TEMPAVG PRESSURE GPRESSURE VOLUME PRESSAVG GPRESSAVG
ENERGY: 400000 0.0000 0.0000 0.0000 0.0000 -13682.4361 2295.5615 0.0000 0.0000 688.0682 -10698.8064 118.4982 -11386.8746 -10697.6428 118.4982 34.9958 83.1646 28582.9306 34.9958 83.1646
ENERGY: 500000 0.0000 0.0000 0.0000 0.0000 -13533.9033 2300.0426 0.0000 0.0000 872.4639 -10361.3968 150.2546 -11233.8607 -10358.5285 149.9815 712.1722 729.6651 28580.3086 3.9058 3.9575
TCL: Running 100000 steps at 180 kelvin.
TCL: Setting parameter langevinTemp to 180
TCL: Running for 100000 steps
ETITLE: TS BOND ANGLE DIHED IMPRP ELECT VDW BOUNDARY MISC KINETIC TOTAL TEMP POTENTIAL TOTAL3 TEMPAVG PRESSURE GPRESSURE VOLUME PRESSAVG GPRESSAVG
ENERGY: 500000 0.0000 0.0000 0.0000 0.0000 -13533.9033 2300.0426 0.0000 0.0000 872.0514 -10361.8093 150.1835 -11233.8607 -10360.1673 150.1835 685.2968 730.5301 28580.3086 685.2968 730.5301
ENERGY: 600000 0.0000 0.0000 0.0000 0.0000 -13067.9770 2146.0239 0.0000 0.0000 1063.3961 -9858.5570 183.1366 -10921.9530 -9855.2149 180.5528 495.7911 572.6826 28620.1502 3.7180 3.7082
TCL: Running 100000 steps at 210 kelvin.
TCL: Setting parameter langevinTemp to 210
TCL: Running for 100000 steps
ETITLE: TS BOND ANGLE DIHED IMPRP ELECT VDW BOUNDARY MISC KINETIC TOTAL TEMP POTENTIAL TOTAL3 TEMPAVG PRESSURE GPRESSURE VOLUME PRESSAVG GPRESSAVG
ENERGY: 600000 0.0000 0.0000 0.0000 0.0000 -13067.9770 2146.0239 0.0000 0.0000 1062.8832 -9859.0698 183.0483 -10921.9530 -9857.1359 183.0483 518.5379 573.9927 28620.1502 518.5379 573.9927
ENERGY: 700000 0.0000 0.0000 0.0000 0.0000 -12404.3011 1927.7003 0.0000 0.0000 1219.2338 -9257.3670 209.9748 -10476.6008 -9254.2537 210.2007 379.5274 434.5178 28726.9485 1.8008 1.7646
TCL: Running 100000 steps at 240 kelvin.
TCL: Setting parameter langevinTemp to 240
TCL: Running for 100000 steps
ETITLE: TS BOND ANGLE DIHED IMPRP ELECT VDW BOUNDARY MISC KINETIC TOTAL TEMP POTENTIAL TOTAL3 TEMPAVG PRESSURE GPRESSURE VOLUME PRESSAVG GPRESSAVG
ENERGY: 700000 0.0000 0.0000 0.0000 0.0000 -12404.3011 1927.7003 0.0000 0.0000 1218.5772 -9258.0236 209.8617 -10476.6008 -9255.7033 209.8617 356.8621 435.0302 28726.9485 356.8621 435.0302
ENERGY: 800000 0.0000 0.0000 0.0000 0.0000 -11634.9961 1639.0120 0.0000 0.0000 1421.4957 -8574.4884 244.8081 -9995.9841 -8574.9946 239.9040 -295.3147 -252.5745 29068.7276 2.6445 2.7107
TCL: Running 100000 steps at 270 kelvin.
TCL: Setting parameter langevinTemp to 270
TCL: Running for 100000 steps
ETITLE: TS BOND ANGLE DIHED IMPRP ELECT VDW BOUNDARY MISC KINETIC TOTAL TEMP POTENTIAL TOTAL3 TEMPAVG PRESSURE GPRESSURE VOLUME PRESSAVG GPRESSAVG
ENERGY: 800000 0.0000 0.0000 0.0000 0.0000 -11634.9961 1639.0120 0.0000 0.0000 1420.7901 -8575.1940 244.6866 -9995.9841 -8572.8727 244.6866 -348.6334 -255.5239 29068.7276 -348.6334 -255.5239
ENERGY: 900000 0.0000 0.0000 0.0000 0.0000 -11181.2539 1542.0596 0.0000 0.0000 1525.5713 -8113.6231 262.7318 -9639.1943 -8110.2801 270.2642 -195.4625 -92.8519 29481.6088 3.2723 3.2930
TCL: Running 1000000 steps at 300 kelvin.
TCL: Setting parameter langevinTemp to 300
TCL: Running for 1000000 steps
ETITLE: TS BOND ANGLE DIHED IMPRP ELECT VDW BOUNDARY MISC KINETIC TOTAL TEMP POTENTIAL TOTAL3 TEMPAVG PRESSURE GPRESSURE VOLUME PRESSAVG GPRESSAVG
ENERGY: 900000 0.0000 0.0000 0.0000 0.0000 -11181.2539 1542.0596 0.0000 0.0000 1524.7925 -8114.4018 262.5977 -9639.1943 -8111.7593 262.5977 -184.7169 -93.4506 29481.6088 -184.7169 -93.4506
ENERGY: 1100000 0.0000 0.0000 0.0000 0.0000 -10646.7011 1432.2090 0.0000 0.0000 1744.1261 -7470.3661 300.3710 -9214.4921 -7467.3470 300.9768 -95.7272 -28.4537 30634.8416 4.1992 4.1067
ENERGY: 1300000 0.0000 0.0000 0.0000 0.0000 -10488.4193 1385.5050 0.0000 0.0000 1750.8693 -7352.0451 301.5323 -9102.9143 -7351.6795 300.0433 256.4334 275.0573 30193.9791 3.7902 3.7571
ENERGY: 1500000 0.0000 0.0000 0.0000 0.0000 -10620.3147 1385.7265 0.0000 0.0000 1707.6758 -7526.9124 294.0936 -9234.5882 -7523.0598 299.6020 -412.8582 -348.6978 30224.0626 4.2317 4.3665
ENERGY: 1700000 0.0000 0.0000 0.0000 0.0000 -10636.0046 1442.7240 0.0000 0.0000 1766.4572 -7426.8233 304.2169 -9193.2806 -7420.7328 300.4552 145.6083 179.0778 30616.9017 3.6184 3.5503
ENERGY: 1900000 0.0000 0.0000 0.0000 0.0000 -10620.2814 1380.0110 0.0000 0.0000 1790.3160 -7449.9545 308.3258 -9240.2704 -7447.4645 299.8671 -391.7365 -359.1774 30385.8098 3.3743 3.2576
TCL: Exiting due to exit command.
