Info: SIMULATION PARAMETERS:
Info: TIMESTEP               2
Info: NUMBER OF STEPS        0
Info: STEPS PER CYCLE        10
Info: PERIODIC CELL BASIS 1  37.435 0 0
Info: PERIODIC CELL BASIS 2  0 34.26 0
Info: PERIODIC CELL BASIS 3  0 0 34.229
Info: PERIODIC CELL CENTER   0 0 0
Info: WRAPPING WATERS AROUND PERIODIC BOUNDARIES ON OUTPUT.
Info: WRAPPING ALL CLUSTERS AROUND PERIODIC BOUNDARIES ON OUTPUT.
Info: FIRST LDB TIMESTEP     50
Info: LAST LDB TIMESTEP     -1
Info: HOM BACKGROUND SCALING 1
Info: PME BACKGROUND SCALING 1
Info: MIN ATOMS PER PATCH    40
Info: EMPTY PATCH LOAD       40 ATOMS
Info: INITIAL TEMPERATURE    300
Info: CENTER OF MASS MOVING INITIALLY? NO
Info: DIELECTRIC             1
Info: EXCLUDE                SCALED ONE-FOUR
Info: 1-4 ELECTROSTATICS SCALED BY 0.833333
Info: MODIFIED 1-4 VDW PARAMETERS WILL BE USED
Info: DCD FILENAME           mobley_2043882_equil.dcd
Info: DCD FREQUENCY          100000
Info: DCD FIRST STEP         100000
Info: DCD FILE WILL CONTAIN UNIT CELL DATA
Info: XST FILENAME           mobley_2043882_equil.xst
Info: XST FREQUENCY          100000
Info: NO VELOCITY DCD OUTPUT
Info: NO FORCE DCD OUTPUT
Info: OUTPUT FILENAME        mobley_2043882_equil
Info: BINARY OUTPUT FILES WILL BE USED
Info: RESTART FILENAME       mobley_2043882_equil.restart
Info: RESTART FREQUENCY      100000
Info: BINARY RESTART FILES WILL BE USED
Info: CUTOFF                 9
Info: PAIRLIST DISTANCE      11
Info: PAIRLIST SHRINK RATE   0.01
Info: PAIRLIST GROW RATE     0.01
Info: PAIRLIST TRIGGER       0.3
Info: PAIRLISTS PER CYCLE    2
Info: PAIRLISTS ENABLED
Info: MARGIN                 8
Info: HYDROGEN GROUP CUTOFF  2.5
Info: PATCH DIMENSION        21.5
Info: ENERGY OUTPUT STEPS    100000
Info: ENERGY EVALUATION STEPS    100000
Info: OUTPUT ENERGY PRECISION 4
Info: CROSSTERM ENERGY INCLUDED IN DIHEDRAL
Info: TIMING OUTPUT STEPS    1000000
Info: PRESSURE OUTPUT STEPS  100000
Info: FIXED ATOMS ACTIVE
Info: LANGEVIN DYNAMICS ACTIVE
Info: LANGEVIN TEMPERATURE   30
Info: LANGEVIN USING BBK INTEGRATOR
Info: LANGEVIN DAMPING COEFFICIENT IS 1 INVERSE PS
Info: LANGEVIN DYNAMICS APPLIED TO HYDROGENS
Info: LANGEVIN PISTON PRESSURE CONTROL ACTIVE
Info:        TARGET PRESSURE IS 1.01325 BAR
Info:     OSCILLATION PERIOD IS 50 FS
Info:             DECAY TIME IS 25 FS
Info:     PISTON TEMPERATURE IS 300 K
Info:       PRESSURE CONTROL IS GROUP-BASED
Info:    INITIAL STRAIN RATE IS 0 0 0
Info:       CELL FLUCTUATION IS ISOTROPIC
Info: PARTICLE MESH EWALD (PME) ACTIVE
Info: PME TOLERANCE               1e-06
Info: PME EWALD COEFFICIENT       0.348832
Info: PME INTERPOLATION ORDER     4
Info: PME GRID DIMENSIONS         40 36 36
Info: PME MAXIMUM GRID SPACING    1
Info: FULL ELECTROSTATIC EVALUATION FREQUENCY      2
Info: USING VERLET I (r-RESPA) MTS SCHEME.
Info: C1 SPLITTING OF LONG RANGE ELECTROSTATICS
Info: PLACING ATOMS IN PATCHES BY HYDROGEN GROUPS
Info: RIGID BONDS TO HYDROGEN : ALL
Info:         ERROR TOLERANCE : 1e-08
Info:          MAX ITERATIONS : 100
Info: RIGID WATER USING SETTLE ALGORITHM
Info: RANDOM NUMBER SEED     1744726668
Info: USE HYDROGEN BONDS?    NO
Info: Using AMBER format force field!
Info: AMBER PARM FILE        mobley_2043882.prmtop
Info: COORDINATE PDB         mobley_2043882.pdb
Info: Exclusions will be read from PARM file!
Info: SCNB (VDW SCALING)     2
Info: USING ARITHMETIC MEAN TO COMBINE L-J SIGMA PARAMETERS
Info: BINARY COORDINATES     mobley_2043882_min.coor
Info: SUMMARY OF PARAMETERS:
Info: 6 BONDS
Info: 7 ANGLES
Info:   7 HARMONIC
Info:   0 COSINE-BASED
Info: 11 DIHEDRAL
Info: 0 IMPROPER
Info: 0 CROSSTERM
Info: 0 VDW
Info: 21 VDW_PAIRS
Info: 0 NBTHOLE_PAIRS
Info: STRUCTURE SUMMARY:
Info: 2963 ATOMS
Info: 2963 BONDS
Info: 45 ANGLES
Info: 87 DIHEDRALS
Info: 0 IMPROPERS
Info: 0 CROSSTERMS
Info: 3071 EXCLUSIONS
Info: 23 FIXED ATOMS
Info: 2954 RIGID BONDS
Info: 14 RIGID BONDS BETWEEN FIXED ATOMS
Info: 5880 DEGREES OF FREEDOM
Info: 989 HYDROGEN GROUPS
Info: 4 ATOMS IN LARGEST HYDROGEN GROUP
Info: 989 MIGRATION GROUPS
Info: 4 ATOMS IN LARGEST MIGRATION GROUP
Info: 9 HYDROGEN GROUPS WITH ALL ATOMS FIXED
Info: TOTAL MASS = 17781.9 amu
Info: TOTAL CHARGE = 0.000100017 e
Info: MASS DENSITY = 0.672632 g/cm^3
Info: ATOM DENSITY = 0.0674951 atoms/A^3
Info: ADDED 0 IMPLICIT EXCLUSIONS
Info: NONBONDED TABLE R-SQUARED SPACING: 0.0625
Info: NONBONDED TABLE SIZE: 705 POINTS
Info: REMOVING COM VELOCITY 0.15714 0.0984517 -0.0386184
TCL: Running for 100000 steps
ETITLE: TS BOND ANGLE DIHED IMPRP ELECT VDW BOUNDARY MISC KINETIC TOTAL TEMP POTENTIAL TOTAL3 TEMPAVG PRESSURE GPRESSURE VOLUME PRESSAVG GPRESSAVG
ENERGY: 0 0.0000 0.0000 0.0000 0.0000 -13653.6913 2367.2286 0.0000 0.0000 1705.6106 -9580.8521 291.9396 -11286.4627 -9580.5159 291.9396 35.9704 62.0772 43899.4832 35.9704 62.0772
ENERGY: 100000 0.0000 0.0000 0.0000 0.0000 -14192.1850 2395.8497 0.0000 0.0000 169.8501 -11626.4852 29.0723 -11796.3353 -11626.0490 30.7577 -641.9768 -565.1396 29009.1831 4.1278 4.0891
TCL: Running 100000 steps at 60 kelvin.
TCL: Setting parameter langevinTemp to 60
TCL: Running for 100000 steps
ETITLE: TS BOND ANGLE DIHED IMPRP ELECT VDW BOUNDARY MISC KINETIC TOTAL TEMP POTENTIAL TOTAL3 TEMPAVG PRESSURE GPRESSURE VOLUME PRESSAVG GPRESSAVG
ENERGY: 100000 0.0000 0.0000 0.0000 0.0000 -14192.1850 2395.8497 0.0000 0.0000 169.7613 -11626.5740 29.0571 -11796.3353 -11626.1410 29.0571 -624.0400 -565.1927 29009.1831 -624.0400 -565.1927
ENERGY: 200000 0.0000 0.0000 0.0000 0.0000 -14124.2067 2408.2749 0.0000 0.0000 354.8271 -11361.1046 60.7337 -11715.9318 -11360.6910 59.9027 54.8628 126.9381 28711.8294 4.3386 4.3467
TCL: Running 100000 steps at 90 kelvin.
TCL: Setting parameter langevinTemp to 90
TCL: Running for 100000 steps
ETITLE: TS BOND ANGLE DIHED IMPRP ELECT VDW BOUNDARY MISC KINETIC TOTAL TEMP POTENTIAL TOTAL3 TEMPAVG PRESSURE GPRESSURE VOLUME PRESSAVG GPRESSAVG
ENERGY: 200000 0.0000 0.0000 0.0000 0.0000 -14124.2067 2408.2749 0.0000 0.0000 354.6524 -11361.2794 60.7038 -11715.9318 -11360.5852 60.7038 59.6226 126.4938 28711.8294 59.6226 126.4938
ENERGY: 300000 0.0000 0.0000 0.0000 0.0000 -14027.5356 2367.3417 0.0000 0.0000 527.4604 -11132.7335 90.2824 -11660.1939 -11131.3618 89.8673 -257.0265 -202.0221 28887.0468 4.1294 4.1553
TCL: Running 100000 steps at 120 kelvin.
TCL: Setting parameter langevinTemp to 120
TCL: Running for 100000 steps
ETITLE: TS BOND ANGLE DIHED IMPRP ELECT VDW BOUNDARY MISC KINETIC TOTAL TEMP POTENTIAL TOTAL3 TEMPAVG PRESSURE GPRESSURE VOLUME PRESSAVG GPRESSAVG
ENERGY: 300000 0.0000 0.0000 0.0000 0.0000 -14027.5356 2367.3417 0.0000 0.0000 527.1850 -11133.0090 90.2352 -11660.1939 -11131.8652 90.2352 -244.4897 -201.7506 28887.0468 -244.4897 -201.7506
ENERGY: 400000 0.0000 0.0000 0.0000 0.0000 -13890.0957 2350.9781 0.0000 0.0000 714.7820 -10824.3356 122.3451 -11539.1176 -10823.3114 119.8492 169.2242 204.2683 28779.0671 4.1785 4.1844
TCL: Running 100000 steps at 150 kelvin.
TCL: Setting parameter langevinTemp to 150
TCL: Running for 100000 steps
ETITLE: TS BOND ANGLE DIHED IMPRP ELECT VDW BOUNDARY MISC KINETIC TOTAL TEMP POTENTIAL TOTAL3 TEMPAVG PRESSURE GPRESSURE VOLUME PRESSAVG GPRESSAVG
ENERGY: 400000 0.0000 0.0000 0.0000 0.0000 -13890.0957 2350.9781 0.0000 0.0000 714.4226 -10824.6950 122.2836 -11539.1176 -10823.0757 122.2836 151.7744 204.5739 28779.0671 151.7744 204.5739
ENERGY: 500000 0.0000 0.0000 0.0000 0.0000 -13570.9492 2270.2184 0.0000 0.0000 889.4745 -10411.2563 152.2462 -11300.7308 -10408.9985 150.5554 329.5719 419.1034 28692.8268 5.6288 5.6340
TCL: Running 100000 steps at 180 kelvin.
TCL: Setting parameter langevinTemp to 180
TCL: Running for 100000 steps
ETITLE: TS BOND ANGLE DIHED IMPRP ELECT VDW BOUNDARY MISC KINETIC TOTAL TEMP POTENTIAL TOTAL3 TEMPAVG PRESSURE GPRESSURE VOLUME PRESSAVG GPRESSAVG
ENERGY: 500000 0.0000 0.0000 0.0000 0.0000 -13570.9492 2270.2184 0.0000 0.0000 889.0272 -10411.7036 152.1697 -11300.7308 -10409.8767 152.1697 361.1037 418.8532 28692.8268 361.1037 418.8532
ENERGY: 600000 0.0000 0.0000 0.0000 0.0000 -13096.9297 2071.9396 0.0000 0.0000 1035.4766 -9989.5135 177.2366 -11024.9901 -9987.6756 179.7926 -255.6150 -216.0396 28830.2513 4.3002 4.3660
TCL: Running 100000 steps at 210 kelvin.
TCL: Setting parameter langevinTemp to 210
TCL: Running for 100000 steps
ETITLE: TS BOND ANGLE DIHED IMPRP ELECT VDW BOUNDARY MISC KINETIC TOTAL TEMP POTENTIAL TOTAL3 TEMPAVG PRESSURE GPRESSURE VOLUME PRESSAVG GPRESSAVG
ENERGY: 600000 0.0000 0.0000 0.0000 0.0000 -13096.9297 2071.9396 0.0000 0.0000 1034.9952 -9989.9949 177.1542 -11024.9901 -9988.1333 177.1542 -278.2289 -216.9794 28830.2513 -278.2289 -216.9794
ENERGY: 700000 0.0000 0.0000 0.0000 0.0000 -12466.9176 1860.0772 0.0000 0.0000 1244.5441 -9362.2964 213.0214 -10606.8405 -9357.9872 210.2136 -520.3582 -449.8789 29101.3791 3.9184 4.0044
TCL: Running 100000 steps at 240 kelvin.
TCL: Setting parameter langevinTemp to 240
TCL: Running for 100000 steps
ETITLE: TS BOND ANGLE DIHED IMPRP ELECT VDW BOUNDARY MISC KINETIC TOTAL TEMP POTENTIAL TOTAL3 TEMPAVG PRESSURE GPRESSURE VOLUME PRESSAVG GPRESSAVG
ENERGY: 700000 0.0000 0.0000 0.0000 0.0000 -12466.9176 1860.0772 0.0000 0.0000 1243.9222 -9362.9182 212.9150 -10606.8405 -9360.7690 212.9150 -534.9364 -448.3103 29101.3791 -534.9364 -448.3103
ENERGY: 800000 0.0000 0.0000 0.0000 0.0000 -11820.7104 1674.6815 0.0000 0.0000 1437.0372 -8708.9917 245.9694 -10146.0289 -8706.3509 239.7406 -610.2061 -510.3786 29562.4742 3.8973 3.8283
TCL: Running 100000 steps at 270 kelvin.
TCL: Setting parameter langevinTemp to 270
TCL: Running for 100000 steps
ETITLE: TS BOND ANGLE DIHED IMPRP ELECT VDW BOUNDARY MISC KINETIC TOTAL TEMP POTENTIAL TOTAL3 TEMPAVG PRESSURE GPRESSURE VOLUME PRESSAVG GPRESSAVG
ENERGY: 800000 0.0000 0.0000 0.0000 0.0000 -11820.7104 1674.6815 0.0000 0.0000 1436.3477 -8709.6813 245.8514 -10146.0289 -8707.7938 245.8514 -600.7397 -511.3723 29562.4742 -600.7397 -511.3723
ENERGY: 900000 0.0000 0.0000 0.0000 0.0000 -11247.9769 1539.8511 0.0000 0.0000 1575.4913 -8132.6345 269.6678 -9708.1257 -8128.7686 269.7443 -115.1489 -120.4232 29888.1203 2.8259 2.8427
TCL: Running 1000000 steps at 300 kelvin.
TCL: Setting parameter langevinTemp to 300
TCL: Running for 1000000 steps
ETITLE: TS BOND ANGLE DIHED IMPRP ELECT VDW BOUNDARY MISC KINETIC TOTAL TEMP POTENTIAL TOTAL3 TEMPAVG PRESSURE GPRESSURE VOLUME PRESSAVG GPRESSAVG
ENERGY: 900000 0.0000 0.0000 0.0000 0.0000 -11247.9769 1539.8511 0.0000 0.0000 1574.7141 -8133.4117 269.5348 -9708.1257 -8130.2452 269.5348 -199.3514 -121.5360 29888.1203 -199.3514 -121.5360
ENERGY: 1100000 0.0000 0.0000 0.0000 0.0000 -10746.3749 1452.7978 0.0000 0.0000 1779.9168 -7513.6603 304.6581 -9293.5771 -7509.6478 300.5500 95.4120 183.9881 30824.1127 2.7940 2.7187
ENERGY: 1300000 0.0000 0.0000 0.0000 0.0000 -10737.3609 1448.8558 0.0000 0.0000 1772.1220 -7516.3831 303.3239 -9288.5051 -7512.2898 300.0206 35.9259 204.0905 30668.2492 2.7188 2.8246
ENERGY: 1500000 0.0000 0.0000 0.0000 0.0000 -10655.0749 1337.0197 0.0000 0.0000 1718.9600 -7599.0952 294.2245 -9318.0551 -7595.9801 300.3491 -743.2188 -596.7575 30433.3144 3.3208 3.2307
ENERGY: 1700000 0.0000 0.0000 0.0000 0.0000 -10719.5986 1403.1760 0.0000 0.0000 1751.9009 -7564.5217 299.8628 -9316.4226 -7563.5904 299.9455 -233.9791 -102.3456 30584.0174 4.2448 4.1851
ENERGY: 1900000 0.0000 0.0000 0.0000 0.0000 -10730.2841 1416.2558 0.0000 0.0000 1771.8698 -7542.1585 303.2808 -9314.0283 -7537.3984 300.1087 -142.7071 -20.6267 30356.6984 2.9542 2.9451
TCL: Exiting due to exit command.
