Info: SIMULATION PARAMETERS:
Info: TIMESTEP               2
Info: NUMBER OF STEPS        0
Info: STEPS PER CYCLE        10
Info: PERIODIC CELL BASIS 1  37.435 0 0
Info: PERIODIC CELL BASIS 2  0 34.26 0
Info: PERIODIC CELL BASIS 3  0 0 34.229
Info: PERIODIC CELL CENTER   0 0 0
Info: WRAPPING WATERS AROUND PERIODIC BOUNDARIES ON OUTPUT.
Info: WRAPPING ALL CLUSTERS AROUND PERIODIC BOUNDARIES ON OUTPUT.
Info: FIRST LDB TIMESTEP     50
Info: LAST LDB TIMESTEP     -1
Info: HOM BACKGROUND SCALING 1
Info: PME BACKGROUND SCALING 1
Info: MIN ATOMS PER PATCH    40
Info: EMPTY PATCH LOAD       40 ATOMS
Info: INITIAL TEMPERATURE    300
Info: CENTER OF MASS MOVING INITIALLY? NO
Info: DIELECTRIC             1
Info: EXCLUDE                SCALED ONE-FOUR
Info: 1-4 ELECTROSTATICS SCALED BY 0.833333
Info: MODIFIED 1-4 VDW PARAMETERS WILL BE USED
Info: DCD FILENAME           mobley_5616693_equil.dcd
Info: DCD FREQUENCY          100000
Info: DCD FIRST STEP         100000
Info: DCD FILE WILL CONTAIN UNIT CELL DATA
Info: XST FILENAME           mobley_5616693_equil.xst
Info: XST FREQUENCY          100000
Info: NO VELOCITY DCD OUTPUT
Info: NO FORCE DCD OUTPUT
Info: OUTPUT FILENAME        mobley_5616693_equil
Info: BINARY OUTPUT FILES WILL BE USED
Info: RESTART FILENAME       mobley_5616693_equil.restart
Info: RESTART FREQUENCY      100000
Info: BINARY RESTART FILES WILL BE USED
Info: CUTOFF                 9
Info: PAIRLIST DISTANCE      11
Info: PAIRLIST SHRINK RATE   0.01
Info: PAIRLIST GROW RATE     0.01
Info: PAIRLIST TRIGGER       0.3
Info: PAIRLISTS PER CYCLE    2
Info: PAIRLISTS ENABLED
Info: MARGIN                 8
Info: HYDROGEN GROUP CUTOFF  2.5
Info: PATCH DIMENSION        21.5
Info: ENERGY OUTPUT STEPS    100000
Info: ENERGY EVALUATION STEPS    100000
Info: OUTPUT ENERGY PRECISION 4
Info: CROSSTERM ENERGY INCLUDED IN DIHEDRAL
Info: TIMING OUTPUT STEPS    1000000
Info: PRESSURE OUTPUT STEPS  100000
Info: FIXED ATOMS ACTIVE
Info: LANGEVIN DYNAMICS ACTIVE
Info: LANGEVIN TEMPERATURE   30
Info: LANGEVIN USING BBK INTEGRATOR
Info: LANGEVIN DAMPING COEFFICIENT IS 1 INVERSE PS
Info: LANGEVIN DYNAMICS APPLIED TO HYDROGENS
Info: LANGEVIN PISTON PRESSURE CONTROL ACTIVE
Info:        TARGET PRESSURE IS 1.01325 BAR
Info:     OSCILLATION PERIOD IS 50 FS
Info:             DECAY TIME IS 25 FS
Info:     PISTON TEMPERATURE IS 300 K
Info:       PRESSURE CONTROL IS GROUP-BASED
Info:    INITIAL STRAIN RATE IS 0 0 0
Info:       CELL FLUCTUATION IS ISOTROPIC
Info: PARTICLE MESH EWALD (PME) ACTIVE
Info: PME TOLERANCE               1e-06
Info: PME EWALD COEFFICIENT       0.348832
Info: PME INTERPOLATION ORDER     4
Info: PME GRID DIMENSIONS         40 36 36
Info: PME MAXIMUM GRID SPACING    1
Info: FULL ELECTROSTATIC EVALUATION FREQUENCY      2
Info: USING VERLET I (r-RESPA) MTS SCHEME.
Info: C1 SPLITTING OF LONG RANGE ELECTROSTATICS
Info: PLACING ATOMS IN PATCHES BY HYDROGEN GROUPS
Info: RIGID BONDS TO HYDROGEN : ALL
Info:         ERROR TOLERANCE : 1e-08
Info:          MAX ITERATIONS : 100
Info: RIGID WATER USING SETTLE ALGORITHM
Info: RANDOM NUMBER SEED     1744763127
Info: USE HYDROGEN BONDS?    NO
Info: Using AMBER format force field!
Info: AMBER PARM FILE        mobley_5616693.prmtop
Info: COORDINATE PDB         mobley_5616693.pdb
Info: Exclusions will be read from PARM file!
Info: SCNB (VDW SCALING)     2
Info: USING ARITHMETIC MEAN TO COMBINE L-J SIGMA PARAMETERS
Info: BINARY COORDINATES     mobley_5616693_min.coor
Info: SUMMARY OF PARAMETERS:
Info: 6 BONDS
Info: 7 ANGLES
Info:   7 HARMONIC
Info:   0 COSINE-BASED
Info: 11 DIHEDRAL
Info: 0 IMPROPER
Info: 0 CROSSTERM
Info: 0 VDW
Info: 21 VDW_PAIRS
Info: 0 NBTHOLE_PAIRS
Info: STRUCTURE SUMMARY:
Info: 2957 ATOMS
Info: 2957 BONDS
Info: 57 ANGLES
Info: 103 DIHEDRALS
Info: 0 IMPROPERS
Info: 0 CROSSTERMS
Info: 3095 EXCLUSIONS
Info: 29 FIXED ATOMS
Info: 2946 RIGID BONDS
Info: 18 RIGID BONDS BETWEEN FIXED ATOMS
Info: 5856 DEGREES OF FREEDOM
Info: 987 HYDROGEN GROUPS
Info: 4 ATOMS IN LARGEST HYDROGEN GROUP
Info: 987 MIGRATION GROUPS
Info: 4 ATOMS IN LARGEST MIGRATION GROUP
Info: 11 HYDROGEN GROUPS WITH ALL ATOMS FIXED
Info: TOTAL MASS = 17737.9 amu
Info: TOTAL CHARGE = -0.000100005 e
Info: MASS DENSITY = 0.670967 g/cm^3
Info: ATOM DENSITY = 0.0673584 atoms/A^3
Info: ADDED 0 IMPLICIT EXCLUSIONS
Info: NONBONDED TABLE R-SQUARED SPACING: 0.0625
Info: NONBONDED TABLE SIZE: 705 POINTS
Info: REMOVING COM VELOCITY 0.0534606 0.140813 0.225933
TCL: Running for 100000 steps
ETITLE: TS BOND ANGLE DIHED IMPRP ELECT VDW BOUNDARY MISC KINETIC TOTAL TEMP POTENTIAL TOTAL3 TEMPAVG PRESSURE GPRESSURE VOLUME PRESSAVG GPRESSAVG
ENERGY: 0 0.0000 0.0000 0.0000 0.0000 -13563.3470 2362.2696 0.0000 0.0000 1726.9193 -9474.1581 296.7983 -11201.0774 -9473.8384 296.7983 215.1794 251.3397 43899.4832 215.1794 251.3397
ENERGY: 100000 0.0000 0.0000 0.0000 0.0000 -14174.4588 2493.7722 0.0000 0.0000 173.7544 -11506.9322 29.8624 -11680.6866 -11506.3845 30.9329 209.1236 265.6471 30003.3903 3.5764 3.5099
TCL: Running 100000 steps at 60 kelvin.
TCL: Setting parameter langevinTemp to 60
TCL: Running for 100000 steps
ETITLE: TS BOND ANGLE DIHED IMPRP ELECT VDW BOUNDARY MISC KINETIC TOTAL TEMP POTENTIAL TOTAL3 TEMPAVG PRESSURE GPRESSURE VOLUME PRESSAVG GPRESSAVG
ENERGY: 100000 0.0000 0.0000 0.0000 0.0000 -14174.4588 2493.7722 0.0000 0.0000 173.6685 -11507.0181 29.8477 -11680.6866 -11506.6296 29.8477 212.0208 265.7332 30003.3903 212.0208 265.7332
ENERGY: 200000 0.0000 0.0000 0.0000 0.0000 -14193.3372 2589.2063 0.0000 0.0000 348.3935 -11255.7374 59.8769 -11604.1309 -11254.7858 59.9211 1410.7696 1446.6780 29617.8379 4.4076 4.4369
TCL: Running 100000 steps at 90 kelvin.
TCL: Setting parameter langevinTemp to 90
TCL: Running for 100000 steps
ETITLE: TS BOND ANGLE DIHED IMPRP ELECT VDW BOUNDARY MISC KINETIC TOTAL TEMP POTENTIAL TOTAL3 TEMPAVG PRESSURE GPRESSURE VOLUME PRESSAVG GPRESSAVG
ENERGY: 200000 0.0000 0.0000 0.0000 0.0000 -14193.3372 2589.2063 0.0000 0.0000 348.2175 -11255.9134 59.8467 -11604.1309 -11255.3129 59.8467 1397.9997 1446.8066 29617.8379 1397.9997 1446.8066
ENERGY: 300000 0.0000 0.0000 0.0000 0.0000 -13939.8534 2383.0633 0.0000 0.0000 526.6127 -11030.1774 90.5067 -11556.7901 -11028.8192 89.9783 -83.2978 -45.3050 29428.6682 3.4139 3.4119
TCL: Running 100000 steps at 120 kelvin.
TCL: Setting parameter langevinTemp to 120
TCL: Running for 100000 steps
ETITLE: TS BOND ANGLE DIHED IMPRP ELECT VDW BOUNDARY MISC KINETIC TOTAL TEMP POTENTIAL TOTAL3 TEMPAVG PRESSURE GPRESSURE VOLUME PRESSAVG GPRESSAVG
ENERGY: 300000 0.0000 0.0000 0.0000 0.0000 -13939.8534 2383.0633 0.0000 0.0000 526.3473 -11030.4428 90.4611 -11556.7901 -11029.3904 90.4611 -105.8932 -45.4490 29428.6682 -105.8932 -45.4490
ENERGY: 400000 0.0000 0.0000 0.0000 0.0000 -13635.4532 2175.7253 0.0000 0.0000 701.4605 -10758.2674 120.5570 -11459.7279 -10757.3471 119.8538 -1194.5632 -1142.3634 29131.9029 3.6477 3.5990
TCL: Running 100000 steps at 150 kelvin.
TCL: Setting parameter langevinTemp to 150
TCL: Running for 100000 steps
ETITLE: TS BOND ANGLE DIHED IMPRP ELECT VDW BOUNDARY MISC KINETIC TOTAL TEMP POTENTIAL TOTAL3 TEMPAVG PRESSURE GPRESSURE VOLUME PRESSAVG GPRESSAVG
ENERGY: 400000 0.0000 0.0000 0.0000 0.0000 -13635.4532 2175.7253 0.0000 0.0000 701.1105 -10758.6175 120.4969 -11459.7279 -10756.8624 120.4969 -1197.5306 -1142.6247 29131.9029 -1197.5306 -1142.6247
ENERGY: 500000 0.0000 0.0000 0.0000 0.0000 -13608.0239 2256.4172 0.0000 0.0000 879.4211 -10472.1855 151.1424 -11351.6066 -10469.4822 150.0342 -183.3812 -116.9261 29038.5406 1.5792 1.4702
TCL: Running 100000 steps at 180 kelvin.
TCL: Setting parameter langevinTemp to 180
TCL: Running for 100000 steps
ETITLE: TS BOND ANGLE DIHED IMPRP ELECT VDW BOUNDARY MISC KINETIC TOTAL TEMP POTENTIAL TOTAL3 TEMPAVG PRESSURE GPRESSURE VOLUME PRESSAVG GPRESSAVG
ENERGY: 500000 0.0000 0.0000 0.0000 0.0000 -13608.0239 2256.4172 0.0000 0.0000 878.9831 -10472.6235 151.0671 -11351.6067 -10470.9910 151.0671 -173.0928 -117.0360 29038.5406 -173.0928 -117.0360
ENERGY: 600000 0.0000 0.0000 0.0000 0.0000 -13274.3354 2217.9597 0.0000 0.0000 1050.4626 -10005.9132 180.5385 -11056.3758 -10003.5473 179.6088 626.0883 722.9517 28998.5292 2.6160 2.5280
TCL: Running 100000 steps at 210 kelvin.
TCL: Setting parameter langevinTemp to 210
TCL: Running for 100000 steps
ETITLE: TS BOND ANGLE DIHED IMPRP ELECT VDW BOUNDARY MISC KINETIC TOTAL TEMP POTENTIAL TOTAL3 TEMPAVG PRESSURE GPRESSURE VOLUME PRESSAVG GPRESSAVG
ENERGY: 600000 0.0000 0.0000 0.0000 0.0000 -13274.3354 2217.9597 0.0000 0.0000 1049.9159 -10006.4599 180.4446 -11056.3758 -10004.6689 180.4446 660.3820 721.6663 28998.5292 660.3820 721.6663
ENERGY: 700000 0.0000 0.0000 0.0000 0.0000 -12449.4701 1901.8563 0.0000 0.0000 1252.2943 -9295.3194 215.2265 -10547.6137 -9293.9358 209.6771 154.9612 264.8557 28680.2914 2.7914 2.7050
TCL: Running 100000 steps at 240 kelvin.
TCL: Setting parameter langevinTemp to 240
TCL: Running for 100000 steps
ETITLE: TS BOND ANGLE DIHED IMPRP ELECT VDW BOUNDARY MISC KINETIC TOTAL TEMP POTENTIAL TOTAL3 TEMPAVG PRESSURE GPRESSURE VOLUME PRESSAVG GPRESSAVG
ENERGY: 700000 0.0000 0.0000 0.0000 0.0000 -12449.4701 1901.8563 0.0000 0.0000 1251.6738 -9295.9399 215.1199 -10547.6137 -9294.0746 215.1199 189.4458 265.5610 28680.2914 189.4458 265.5610
ENERGY: 800000 0.0000 0.0000 0.0000 0.0000 -11906.5642 1746.5851 0.0000 0.0000 1410.1882 -8749.7908 242.3630 -10159.9791 -8747.4839 240.1450 92.6347 202.1688 29128.4534 3.0641 2.8438
TCL: Running 100000 steps at 270 kelvin.
TCL: Setting parameter langevinTemp to 270
TCL: Running for 100000 steps
ETITLE: TS BOND ANGLE DIHED IMPRP ELECT VDW BOUNDARY MISC KINETIC TOTAL TEMP POTENTIAL TOTAL3 TEMPAVG PRESSURE GPRESSURE VOLUME PRESSAVG GPRESSAVG
ENERGY: 800000 0.0000 0.0000 0.0000 0.0000 -11906.5642 1746.5851 0.0000 0.0000 1409.5107 -8750.4683 242.2466 -10159.9791 -8747.9807 242.2466 115.0772 202.2656 29128.4534 115.0772 202.2656
ENERGY: 900000 0.0000 0.0000 0.0000 0.0000 -11166.5962 1443.8997 0.0000 0.0000 1625.4496 -8097.2470 279.3591 -9722.6966 -8093.2285 269.8003 -1004.2328 -910.4207 29852.9227 3.0790 2.9887
TCL: Running 1000000 steps at 300 kelvin.
TCL: Setting parameter langevinTemp to 300
TCL: Running for 1000000 steps
ETITLE: TS BOND ANGLE DIHED IMPRP ELECT VDW BOUNDARY MISC KINETIC TOTAL TEMP POTENTIAL TOTAL3 TEMPAVG PRESSURE GPRESSURE VOLUME PRESSAVG GPRESSAVG
ENERGY: 900000 0.0000 0.0000 0.0000 0.0000 -11166.5962 1443.8997 0.0000 0.0000 1624.6727 -8098.0238 279.2256 -9722.6966 -8095.7368 279.2256 -991.5802 -908.1032 29852.9227 -991.5802 -908.1032
ENERGY: 1100000 0.0000 0.0000 0.0000 0.0000 -10753.7282 1507.0589 0.0000 0.0000 1718.2064 -7528.4629 295.3008 -9246.6692 -7524.5633 299.6373 723.5873 802.7060 30204.0227 3.9357 3.8026
ENERGY: 1300000 0.0000 0.0000 0.0000 0.0000 -10816.7478 1518.5385 0.0000 0.0000 1732.7591 -7565.4502 297.8019 -9298.2093 -7563.0815 299.3416 791.9400 940.1383 30112.4206 3.5056 3.2859
ENERGY: 1500000 0.0000 0.0000 0.0000 0.0000 -10664.8432 1396.5886 0.0000 0.0000 1769.6739 -7498.5807 304.1463 -9268.2546 -7494.2435 299.8729 -255.0917 -204.6122 30542.8181 2.0658 1.9491
ENERGY: 1700000 0.0000 0.0000 0.0000 0.0000 -10625.5620 1437.6894 0.0000 0.0000 1745.2012 -7442.6714 299.9403 -9187.8726 -7439.5615 299.9517 448.2074 537.0472 30109.7848 3.6015 3.6688
ENERGY: 1900000 0.0000 0.0000 0.0000 0.0000 -10790.9466 1462.8071 0.0000 0.0000 1750.1359 -7578.0036 300.7884 -9328.1395 -7574.0753 300.2054 237.0513 287.2584 30305.5432 2.7691 2.6639
TCL: Exiting due to exit command.
