Info: SIMULATION PARAMETERS:
Info: TIMESTEP               2
Info: NUMBER OF STEPS        0
Info: STEPS PER CYCLE        10
Info: PERIODIC CELL BASIS 1  39.546 0 0
Info: PERIODIC CELL BASIS 2  0 34.26 0
Info: PERIODIC CELL BASIS 3  0 0 31.349
Info: PERIODIC CELL CENTER   0 0 0
Info: WRAPPING WATERS AROUND PERIODIC BOUNDARIES ON OUTPUT.
Info: WRAPPING ALL CLUSTERS AROUND PERIODIC BOUNDARIES ON OUTPUT.
Info: FIRST LDB TIMESTEP     50
Info: LAST LDB TIMESTEP     -1
Info: HOM BACKGROUND SCALING 1
Info: PME BACKGROUND SCALING 1
Info: MIN ATOMS PER PATCH    40
Info: EMPTY PATCH LOAD       40 ATOMS
Info: INITIAL TEMPERATURE    300
Info: CENTER OF MASS MOVING INITIALLY? NO
Info: DIELECTRIC             1
Info: EXCLUDE                SCALED ONE-FOUR
Info: 1-4 ELECTROSTATICS SCALED BY 0.833333
Info: MODIFIED 1-4 VDW PARAMETERS WILL BE USED
Info: DCD FILENAME           mobley_2005792_equil.dcd
Info: DCD FREQUENCY          100000
Info: DCD FIRST STEP         100000
Info: DCD FILE WILL CONTAIN UNIT CELL DATA
Info: XST FILENAME           mobley_2005792_equil.xst
Info: XST FREQUENCY          100000
Info: NO VELOCITY DCD OUTPUT
Info: NO FORCE DCD OUTPUT
Info: OUTPUT FILENAME        mobley_2005792_equil
Info: BINARY OUTPUT FILES WILL BE USED
Info: RESTART FILENAME       mobley_2005792_equil.restart
Info: RESTART FREQUENCY      100000
Info: BINARY RESTART FILES WILL BE USED
Info: CUTOFF                 9
Info: PAIRLIST DISTANCE      11
Info: PAIRLIST SHRINK RATE   0.01
Info: PAIRLIST GROW RATE     0.01
Info: PAIRLIST TRIGGER       0.3
Info: PAIRLISTS PER CYCLE    2
Info: PAIRLISTS ENABLED
Info: MARGIN                 8
Info: HYDROGEN GROUP CUTOFF  2.5
Info: PATCH DIMENSION        21.5
Info: ENERGY OUTPUT STEPS    100000
Info: ENERGY EVALUATION STEPS    100000
Info: OUTPUT ENERGY PRECISION 4
Info: CROSSTERM ENERGY INCLUDED IN DIHEDRAL
Info: TIMING OUTPUT STEPS    1000000
Info: PRESSURE OUTPUT STEPS  100000
Info: FIXED ATOMS ACTIVE
Info: LANGEVIN DYNAMICS ACTIVE
Info: LANGEVIN TEMPERATURE   30
Info: LANGEVIN USING BBK INTEGRATOR
Info: LANGEVIN DAMPING COEFFICIENT IS 1 INVERSE PS
Info: LANGEVIN DYNAMICS APPLIED TO HYDROGENS
Info: LANGEVIN PISTON PRESSURE CONTROL ACTIVE
Info:        TARGET PRESSURE IS 1.01325 BAR
Info:     OSCILLATION PERIOD IS 50 FS
Info:             DECAY TIME IS 25 FS
Info:     PISTON TEMPERATURE IS 300 K
Info:       PRESSURE CONTROL IS GROUP-BASED
Info:    INITIAL STRAIN RATE IS 0 0 0
Info:       CELL FLUCTUATION IS ISOTROPIC
Info: PARTICLE MESH EWALD (PME) ACTIVE
Info: PME TOLERANCE               1e-06
Info: PME EWALD COEFFICIENT       0.348832
Info: PME INTERPOLATION ORDER     4
Info: PME GRID DIMENSIONS         40 36 32
Info: PME MAXIMUM GRID SPACING    1
Info: FULL ELECTROSTATIC EVALUATION FREQUENCY      2
Info: USING VERLET I (r-RESPA) MTS SCHEME.
Info: C1 SPLITTING OF LONG RANGE ELECTROSTATICS
Info: PLACING ATOMS IN PATCHES BY HYDROGEN GROUPS
Info: RIGID BONDS TO HYDROGEN : ALL
Info:         ERROR TOLERANCE : 1e-08
Info:          MAX ITERATIONS : 100
Info: RIGID WATER USING SETTLE ALGORITHM
Info: RANDOM NUMBER SEED     1744726042
Info: USE HYDROGEN BONDS?    NO
Info: Using AMBER format force field!
Info: AMBER PARM FILE        mobley_2005792.prmtop
Info: COORDINATE PDB         mobley_2005792.pdb
Info: Exclusions will be read from PARM file!
Info: SCNB (VDW SCALING)     2
Info: USING ARITHMETIC MEAN TO COMBINE L-J SIGMA PARAMETERS
Info: BINARY COORDINATES     mobley_2005792_min.coor
Info: SUMMARY OF PARAMETERS:
Info: 6 BONDS
Info: 6 ANGLES
Info:   6 HARMONIC
Info:   0 COSINE-BASED
Info: 3 DIHEDRAL
Info: 0 IMPROPER
Info: 0 CROSSTERM
Info: 0 VDW
Info: 10 VDW_PAIRS
Info: 0 NBTHOLE_PAIRS
Info: STRUCTURE SUMMARY:
Info: 2926 ATOMS
Info: 2927 BONDS
Info: 36 ANGLES
Info: 64 DIHEDRALS
Info: 0 IMPROPERS
Info: 0 CROSSTERMS
Info: 3009 EXCLUSIONS
Info: 22 FIXED ATOMS
Info: 2914 RIGID BONDS
Info: 10 RIGID BONDS BETWEEN FIXED ATOMS
Info: 5808 DEGREES OF FREEDOM
Info: 980 HYDROGEN GROUPS
Info: 3 ATOMS IN LARGEST HYDROGEN GROUP
Info: 980 MIGRATION GROUPS
Info: 3 ATOMS IN LARGEST MIGRATION GROUP
Info: 12 HYDROGEN GROUPS WITH ALL ATOMS FIXED
Info: TOTAL MASS = 17593.7 amu
Info: TOTAL CHARGE = -0.000199966 e
Info: MASS DENSITY = 0.687864 g/cm^3
Info: ATOM DENSITY = 0.0688907 atoms/A^3
Info: ADDED 0 IMPLICIT EXCLUSIONS
Info: NONBONDED TABLE R-SQUARED SPACING: 0.0625
Info: NONBONDED TABLE SIZE: 705 POINTS
Info: REMOVING COM VELOCITY -0.172713 0.263269 -0.0459915
TCL: Running for 100000 steps
ETITLE: TS BOND ANGLE DIHED IMPRP ELECT VDW BOUNDARY MISC KINETIC TOTAL TEMP POTENTIAL TOTAL3 TEMPAVG PRESSURE GPRESSURE VOLUME PRESSAVG GPRESSAVG
ENERGY: 0 0.0000 0.0000 0.0000 0.0000 -13534.7150 2299.7405 0.0000 0.0000 1690.1454 -9544.8291 292.8787 -11234.9745 -9544.5149 292.8787 -83.6403 -40.6144 42473.0660 -83.6403 -40.6144
ENERGY: 100000 0.0000 0.0000 0.0000 0.0000 -14119.5690 2520.8281 0.0000 0.0000 176.3621 -11422.3788 30.5611 -11598.7410 -11421.8560 30.8297 610.9805 642.4012 29197.1393 3.5768 3.5519
TCL: Running 100000 steps at 60 kelvin.
TCL: Setting parameter langevinTemp to 60
TCL: Running for 100000 steps
ETITLE: TS BOND ANGLE DIHED IMPRP ELECT VDW BOUNDARY MISC KINETIC TOTAL TEMP POTENTIAL TOTAL3 TEMPAVG PRESSURE GPRESSURE VOLUME PRESSAVG GPRESSAVG
ENERGY: 100000 0.0000 0.0000 0.0000 0.0000 -14119.5690 2520.8281 0.0000 0.0000 176.2788 -11422.4621 30.5467 -11598.7410 -11422.0538 30.5467 594.2032 642.2849 29197.1393 594.2032 642.2849
ENERGY: 200000 0.0000 0.0000 0.0000 0.0000 -14038.3345 2490.1460 0.0000 0.0000 348.4537 -11199.7348 60.3822 -11548.1886 -11198.4798 59.9335 660.0417 742.5335 28875.9300 3.6071 3.5902
TCL: Running 100000 steps at 90 kelvin.
TCL: Setting parameter langevinTemp to 90
TCL: Running for 100000 steps
ETITLE: TS BOND ANGLE DIHED IMPRP ELECT VDW BOUNDARY MISC KINETIC TOTAL TEMP POTENTIAL TOTAL3 TEMPAVG PRESSURE GPRESSURE VOLUME PRESSAVG GPRESSAVG
ENERGY: 200000 0.0000 0.0000 0.0000 0.0000 -14038.3345 2490.1460 0.0000 0.0000 348.2836 -11199.9049 60.3527 -11548.1886 -11199.1691 60.3527 683.0220 742.7887 28875.9300 683.0220 742.7887
ENERGY: 300000 0.0000 0.0000 0.0000 0.0000 -13761.9798 2351.9637 0.0000 0.0000 516.0004 -10894.0157 89.4157 -11410.0161 -10893.2732 89.9158 14.0751 68.9786 28985.2155 4.2003 4.2396
TCL: Running 100000 steps at 120 kelvin.
TCL: Setting parameter langevinTemp to 120
TCL: Running for 100000 steps
ETITLE: TS BOND ANGLE DIHED IMPRP ELECT VDW BOUNDARY MISC KINETIC TOTAL TEMP POTENTIAL TOTAL3 TEMPAVG PRESSURE GPRESSURE VOLUME PRESSAVG GPRESSAVG
ENERGY: 300000 0.0000 0.0000 0.0000 0.0000 -13761.9798 2351.9637 0.0000 0.0000 515.7445 -10894.2716 89.3714 -11410.0161 -10893.3163 89.3714 21.5673 68.9508 28985.2155 21.5673 68.9508
ENERGY: 400000 0.0000 0.0000 0.0000 0.0000 -13678.8472 2354.0753 0.0000 0.0000 684.9354 -10639.8365 118.6898 -11324.7719 -10638.8653 119.9430 716.9145 768.6301 28524.2607 5.4729 5.3921
TCL: Running 100000 steps at 150 kelvin.
TCL: Setting parameter langevinTemp to 150
TCL: Running for 100000 steps
ETITLE: TS BOND ANGLE DIHED IMPRP ELECT VDW BOUNDARY MISC KINETIC TOTAL TEMP POTENTIAL TOTAL3 TEMPAVG PRESSURE GPRESSURE VOLUME PRESSAVG GPRESSAVG
ENERGY: 400000 0.0000 0.0000 0.0000 0.0000 -13678.8472 2354.0753 0.0000 0.0000 684.5846 -10640.1873 118.6290 -11324.7719 -10638.8202 118.6290 721.8643 767.6254 28524.2607 721.8643 767.6254
ENERGY: 500000 0.0000 0.0000 0.0000 0.0000 -13305.0849 2119.8871 0.0000 0.0000 847.5001 -10337.6976 146.8600 -11185.1977 -10335.3063 150.0389 -1000.5385 -927.3807 28848.1451 3.9073 3.8807
TCL: Running 100000 steps at 180 kelvin.
TCL: Setting parameter langevinTemp to 180
TCL: Running for 100000 steps
ETITLE: TS BOND ANGLE DIHED IMPRP ELECT VDW BOUNDARY MISC KINETIC TOTAL TEMP POTENTIAL TOTAL3 TEMPAVG PRESSURE GPRESSURE VOLUME PRESSAVG GPRESSAVG
ENERGY: 500000 0.0000 0.0000 0.0000 0.0000 -13305.0849 2119.8871 0.0000 0.0000 847.0612 -10338.1366 146.7839 -11185.1977 -10336.2934 146.7839 -990.1065 -927.2965 28848.1451 -990.1065 -927.2965
ENERGY: 600000 0.0000 0.0000 0.0000 0.0000 -12779.7117 1900.5692 0.0000 0.0000 1074.1038 -9805.0387 186.1273 -10879.1425 -9801.0991 179.8783 -1580.5932 -1493.5130 28680.5568 3.8479 3.8576
TCL: Running 100000 steps at 210 kelvin.
TCL: Setting parameter langevinTemp to 210
TCL: Running for 100000 steps
ETITLE: TS BOND ANGLE DIHED IMPRP ELECT VDW BOUNDARY MISC KINETIC TOTAL TEMP POTENTIAL TOTAL3 TEMPAVG PRESSURE GPRESSURE VOLUME PRESSAVG GPRESSAVG
ENERGY: 600000 0.0000 0.0000 0.0000 0.0000 -12779.7117 1900.5692 0.0000 0.0000 1073.5894 -9805.5531 186.0381 -10879.1425 -9802.8512 186.0381 -1563.6876 -1492.2965 28680.5568 -1563.6876 -1492.2965
ENERGY: 700000 0.0000 0.0000 0.0000 0.0000 -12433.1650 1965.7447 0.0000 0.0000 1171.9357 -9295.4847 203.0802 -10467.4203 -9293.0198 210.0691 1005.9577 1115.5260 28023.0536 4.5917 4.4833
TCL: Running 100000 steps at 240 kelvin.
TCL: Setting parameter langevinTemp to 240
TCL: Running for 100000 steps
ETITLE: TS BOND ANGLE DIHED IMPRP ELECT VDW BOUNDARY MISC KINETIC TOTAL TEMP POTENTIAL TOTAL3 TEMPAVG PRESSURE GPRESSURE VOLUME PRESSAVG GPRESSAVG
ENERGY: 700000 0.0000 0.0000 0.0000 0.0000 -12433.1650 1965.7447 0.0000 0.0000 1171.3405 -9296.0798 202.9771 -10467.4203 -9294.3643 202.9771 1029.6292 1114.9278 28023.0536 1029.6292 1114.9278
ENERGY: 800000 0.0000 0.0000 0.0000 0.0000 -11543.9000 1551.1250 0.0000 0.0000 1374.7717 -8618.0033 238.2289 -9992.7750 -8614.2651 239.1913 -1181.9472 -1131.6848 28915.8938 4.9710 4.9999
TCL: Running 100000 steps at 270 kelvin.
TCL: Setting parameter langevinTemp to 270
TCL: Running for 100000 steps
ETITLE: TS BOND ANGLE DIHED IMPRP ELECT VDW BOUNDARY MISC KINETIC TOTAL TEMP POTENTIAL TOTAL3 TEMPAVG PRESSURE GPRESSURE VOLUME PRESSAVG GPRESSAVG
ENERGY: 800000 0.0000 0.0000 0.0000 0.0000 -11543.9000 1551.1250 0.0000 0.0000 1374.0849 -8618.6901 238.1098 -9992.7750 -8616.4197 238.1098 -1194.8150 -1131.1411 28915.8938 -1194.8150 -1131.1411
ENERGY: 900000 0.0000 0.0000 0.0000 0.0000 -11089.8297 1490.1197 0.0000 0.0000 1529.4315 -8070.2784 265.0292 -9599.7099 -8065.3514 269.6420 -464.8057 -410.8381 29341.7956 4.1927 4.2444
TCL: Running 1000000 steps at 300 kelvin.
TCL: Setting parameter langevinTemp to 300
TCL: Running for 1000000 steps
ETITLE: TS BOND ANGLE DIHED IMPRP ELECT VDW BOUNDARY MISC KINETIC TOTAL TEMP POTENTIAL TOTAL3 TEMPAVG PRESSURE GPRESSURE VOLUME PRESSAVG GPRESSAVG
ENERGY: 900000 0.0000 0.0000 0.0000 0.0000 -11089.8297 1490.1197 0.0000 0.0000 1528.6158 -8071.0942 264.8879 -9599.7099 -8068.5391 264.8879 -491.8844 -409.4744 29341.7956 -491.8844 -409.4744
ENERGY: 1100000 0.0000 0.0000 0.0000 0.0000 -10647.8867 1400.8865 0.0000 0.0000 1761.0839 -7485.9163 305.1714 -9247.0002 -7482.5700 300.0884 -221.9479 -91.4474 29972.1772 3.2897 3.2602
ENERGY: 1300000 0.0000 0.0000 0.0000 0.0000 -10552.5751 1408.8305 0.0000 0.0000 1711.3199 -7432.4247 296.5480 -9143.7446 -7428.4696 299.8022 145.8024 212.5798 29972.2360 2.7977 2.8096
ENERGY: 1500000 0.0000 0.0000 0.0000 0.0000 -10620.6543 1435.7252 0.0000 0.0000 1676.3909 -7508.5383 290.4953 -9184.9291 -7505.3287 300.1601 152.5751 169.2646 30104.7993 2.4508 2.5314
ENERGY: 1700000 0.0000 0.0000 0.0000 0.0000 -10524.3649 1351.7531 0.0000 0.0000 1769.4814 -7403.1304 306.6266 -9172.6118 -7399.7810 300.4795 -372.7144 -269.5922 29906.6254 4.2709 4.2671
ENERGY: 1900000 0.0000 0.0000 0.0000 0.0000 -10595.2054 1396.8604 0.0000 0.0000 1738.5020 -7459.8429 301.2583 -9198.3450 -7453.8284 299.7886 -393.5667 -334.8137 30578.6230 3.3257 3.2761
TCL: Exiting due to exit command.
