Info: SIMULATION PARAMETERS:
Info: TIMESTEP               2
Info: NUMBER OF STEPS        0
Info: STEPS PER CYCLE        10
Info: PERIODIC CELL BASIS 1  39.008 0 0
Info: PERIODIC CELL BASIS 2  0 35.132 0
Info: PERIODIC CELL BASIS 3  0 0 31.855
Info: PERIODIC CELL CENTER   0 0 0
Info: WRAPPING WATERS AROUND PERIODIC BOUNDARIES ON OUTPUT.
Info: WRAPPING ALL CLUSTERS AROUND PERIODIC BOUNDARIES ON OUTPUT.
Info: FIRST LDB TIMESTEP     50
Info: LAST LDB TIMESTEP     -1
Info: HOM BACKGROUND SCALING 1
Info: PME BACKGROUND SCALING 1
Info: MIN ATOMS PER PATCH    40
Info: EMPTY PATCH LOAD       40 ATOMS
Info: INITIAL TEMPERATURE    300
Info: CENTER OF MASS MOVING INITIALLY? NO
Info: DIELECTRIC             1
Info: EXCLUDE                SCALED ONE-FOUR
Info: 1-4 ELECTROSTATICS SCALED BY 0.833333
Info: MODIFIED 1-4 VDW PARAMETERS WILL BE USED
Info: DCD FILENAME           mobley_2295058_equil.dcd
Info: DCD FREQUENCY          100000
Info: DCD FIRST STEP         100000
Info: DCD FILE WILL CONTAIN UNIT CELL DATA
Info: XST FILENAME           mobley_2295058_equil.xst
Info: XST FREQUENCY          100000
Info: NO VELOCITY DCD OUTPUT
Info: NO FORCE DCD OUTPUT
Info: OUTPUT FILENAME        mobley_2295058_equil
Info: BINARY OUTPUT FILES WILL BE USED
Info: RESTART FILENAME       mobley_2295058_equil.restart
Info: RESTART FREQUENCY      100000
Info: BINARY RESTART FILES WILL BE USED
Info: CUTOFF                 9
Info: PAIRLIST DISTANCE      11
Info: PAIRLIST SHRINK RATE   0.01
Info: PAIRLIST GROW RATE     0.01
Info: PAIRLIST TRIGGER       0.3
Info: PAIRLISTS PER CYCLE    2
Info: PAIRLISTS ENABLED
Info: MARGIN                 8
Info: HYDROGEN GROUP CUTOFF  2.5
Info: PATCH DIMENSION        21.5
Info: ENERGY OUTPUT STEPS    100000
Info: ENERGY EVALUATION STEPS    100000
Info: OUTPUT ENERGY PRECISION 4
Info: CROSSTERM ENERGY INCLUDED IN DIHEDRAL
Info: TIMING OUTPUT STEPS    1000000
Info: PRESSURE OUTPUT STEPS  100000
Info: FIXED ATOMS ACTIVE
Info: LANGEVIN DYNAMICS ACTIVE
Info: LANGEVIN TEMPERATURE   30
Info: LANGEVIN USING BBK INTEGRATOR
Info: LANGEVIN DAMPING COEFFICIENT IS 1 INVERSE PS
Info: LANGEVIN DYNAMICS APPLIED TO HYDROGENS
Info: LANGEVIN PISTON PRESSURE CONTROL ACTIVE
Info:        TARGET PRESSURE IS 1.01325 BAR
Info:     OSCILLATION PERIOD IS 50 FS
Info:             DECAY TIME IS 25 FS
Info:     PISTON TEMPERATURE IS 300 K
Info:       PRESSURE CONTROL IS GROUP-BASED
Info:    INITIAL STRAIN RATE IS 0 0 0
Info:       CELL FLUCTUATION IS ISOTROPIC
Info: PARTICLE MESH EWALD (PME) ACTIVE
Info: PME TOLERANCE               1e-06
Info: PME EWALD COEFFICIENT       0.348832
Info: PME INTERPOLATION ORDER     4
Info: PME GRID DIMENSIONS         40 36 32
Info: PME MAXIMUM GRID SPACING    1
Info: FULL ELECTROSTATIC EVALUATION FREQUENCY      2
Info: USING VERLET I (r-RESPA) MTS SCHEME.
Info: C1 SPLITTING OF LONG RANGE ELECTROSTATICS
Info: PLACING ATOMS IN PATCHES BY HYDROGEN GROUPS
Info: RIGID BONDS TO HYDROGEN : ALL
Info:         ERROR TOLERANCE : 1e-08
Info:          MAX ITERATIONS : 100
Info: RIGID WATER USING SETTLE ALGORITHM
Info: RANDOM NUMBER SEED     1744721468
Info: USE HYDROGEN BONDS?    NO
Info: Using AMBER format force field!
Info: AMBER PARM FILE        mobley_2295058.prmtop
Info: COORDINATE PDB         mobley_2295058.pdb
Info: Exclusions will be read from PARM file!
Info: SCNB (VDW SCALING)     2
Info: USING ARITHMETIC MEAN TO COMBINE L-J SIGMA PARAMETERS
Info: BINARY COORDINATES     mobley_2295058_min.coor
Info: SUMMARY OF PARAMETERS:
Info: 11 BONDS
Info: 11 ANGLES
Info:   11 HARMONIC
Info:   0 COSINE-BASED
Info: 7 DIHEDRAL
Info: 0 IMPROPER
Info: 0 CROSSTERM
Info: 0 VDW
Info: 45 VDW_PAIRS
Info: 0 NBTHOLE_PAIRS
Info: STRUCTURE SUMMARY:
Info: 2974 ATOMS
Info: 2974 BONDS
Info: 29 ANGLES
Info: 43 DIHEDRALS
Info: 0 IMPROPERS
Info: 0 CROSSTERMS
Info: 3035 EXCLUSIONS
Info: 19 FIXED ATOMS
Info: 2963 RIGID BONDS
Info: 8 RIGID BONDS BETWEEN FIXED ATOMS
Info: 5910 DEGREES OF FREEDOM
Info: 996 HYDROGEN GROUPS
Info: 4 ATOMS IN LARGEST HYDROGEN GROUP
Info: 996 MIGRATION GROUPS
Info: 4 ATOMS IN LARGEST MIGRATION GROUP
Info: 11 HYDROGEN GROUPS WITH ALL ATOMS FIXED
Info: TOTAL MASS = 17897.9 amu
Info: TOTAL CHARGE = -0.000200037 e
Info: MASS DENSITY = 0.680812 g/cm^3
Info: ATOM DENSITY = 0.068125 atoms/A^3
Info: ADDED 0 IMPLICIT EXCLUSIONS
Info: NONBONDED TABLE R-SQUARED SPACING: 0.0625
Info: NONBONDED TABLE SIZE: 705 POINTS
Info: REMOVING COM VELOCITY -0.10029 0.00194298 -0.0804808
TCL: Running for 100000 steps
ETITLE: TS BOND ANGLE DIHED IMPRP ELECT VDW BOUNDARY MISC KINETIC TOTAL TEMP POTENTIAL TOTAL3 TEMPAVG PRESSURE GPRESSURE VOLUME PRESSAVG GPRESSAVG
ENERGY: 0 0.0000 0.0000 0.0000 0.0000 -13879.6812 2412.2654 0.0000 0.0000 1764.2876 -9703.1282 300.4501 -11467.4158 -9702.7645 300.4501 260.6493 294.3009 43655.0176 260.6493 294.3009
ENERGY: 100000 0.0000 0.0000 0.0000 0.0000 -14502.6159 2648.4803 0.0000 0.0000 176.6899 -11677.4457 30.0895 -11854.1356 -11677.1233 30.8499 1255.0610 1331.9454 29778.4128 3.6038 3.5244
TCL: Running 100000 steps at 60 kelvin.
TCL: Setting parameter langevinTemp to 60
TCL: Running for 100000 steps
ETITLE: TS BOND ANGLE DIHED IMPRP ELECT VDW BOUNDARY MISC KINETIC TOTAL TEMP POTENTIAL TOTAL3 TEMPAVG PRESSURE GPRESSURE VOLUME PRESSAVG GPRESSAVG
ENERGY: 100000 0.0000 0.0000 0.0000 0.0000 -14502.6159 2648.4803 0.0000 0.0000 176.6002 -11677.5354 30.0742 -11854.1356 -11677.1723 30.0742 1274.5297 1331.6129 29778.4128 1274.5297 1331.6129
ENERGY: 200000 0.0000 0.0000 0.0000 0.0000 -14280.5484 2475.0932 0.0000 0.0000 355.0980 -11450.3572 60.4716 -11805.4552 -11449.2796 59.9797 248.6421 325.9580 29443.0338 3.7153 3.6532
TCL: Running 100000 steps at 90 kelvin.
TCL: Setting parameter langevinTemp to 90
TCL: Running for 100000 steps
ETITLE: TS BOND ANGLE DIHED IMPRP ELECT VDW BOUNDARY MISC KINETIC TOTAL TEMP POTENTIAL TOTAL3 TEMPAVG PRESSURE GPRESSURE VOLUME PRESSAVG GPRESSAVG
ENERGY: 200000 0.0000 0.0000 0.0000 0.0000 -14280.5484 2475.0932 0.0000 0.0000 354.9237 -11450.5316 60.4419 -11805.4552 -11449.7789 60.4419 254.2917 326.0124 29443.0338 254.2917 326.0124
ENERGY: 300000 0.0000 0.0000 0.0000 0.0000 -13939.7665 2238.0496 0.0000 0.0000 548.7764 -11152.9405 93.4541 -11701.7169 -11151.6062 90.0065 -1228.1807 -1158.6517 29502.5795 4.9193 4.8763
TCL: Running 100000 steps at 120 kelvin.
TCL: Setting parameter langevinTemp to 120
TCL: Running for 100000 steps
ETITLE: TS BOND ANGLE DIHED IMPRP ELECT VDW BOUNDARY MISC KINETIC TOTAL TEMP POTENTIAL TOTAL3 TEMPAVG PRESSURE GPRESSURE VOLUME PRESSAVG GPRESSAVG
ENERGY: 300000 0.0000 0.0000 0.0000 0.0000 -13939.7665 2238.0496 0.0000 0.0000 548.4990 -11153.2179 93.4069 -11701.7169 -11152.0940 93.4069 -1201.1863 -1157.8779 29502.5795 -1201.1863 -1157.8779
ENERGY: 400000 0.0000 0.0000 0.0000 0.0000 -14006.0662 2381.7617 0.0000 0.0000 693.2230 -10931.0814 118.0527 -11624.3044 -10928.8707 119.7978 412.3170 419.4727 28924.9108 4.2342 4.3106
TCL: Running 100000 steps at 150 kelvin.
TCL: Setting parameter langevinTemp to 150
TCL: Running for 100000 steps
ETITLE: TS BOND ANGLE DIHED IMPRP ELECT VDW BOUNDARY MISC KINETIC TOTAL TEMP POTENTIAL TOTAL3 TEMPAVG PRESSURE GPRESSURE VOLUME PRESSAVG GPRESSAVG
ENERGY: 400000 0.0000 0.0000 0.0000 0.0000 -14006.0662 2381.7617 0.0000 0.0000 692.8607 -10931.4438 117.9910 -11624.3044 -10930.3405 117.9910 377.0462 419.8111 28924.9108 377.0462 419.8111
ENERGY: 500000 0.0000 0.0000 0.0000 0.0000 -13675.6326 2235.6373 0.0000 0.0000 875.0464 -10564.9489 149.0164 -11439.9953 -10563.0587 149.9223 -87.8788 -42.7048 28851.7226 4.5217 4.5372
TCL: Running 100000 steps at 180 kelvin.
TCL: Setting parameter langevinTemp to 180
TCL: Running for 100000 steps
ETITLE: TS BOND ANGLE DIHED IMPRP ELECT VDW BOUNDARY MISC KINETIC TOTAL TEMP POTENTIAL TOTAL3 TEMPAVG PRESSURE GPRESSURE VOLUME PRESSAVG GPRESSAVG
ENERGY: 500000 0.0000 0.0000 0.0000 0.0000 -13675.6326 2235.6373 0.0000 0.0000 874.6208 -10565.3745 148.9439 -11439.9953 -10563.6535 148.9439 -81.6105 -42.3270 28851.7226 -81.6105 -42.3270
ENERGY: 600000 0.0000 0.0000 0.0000 0.0000 -13154.5489 2058.3944 0.0000 0.0000 1017.5206 -10078.6338 173.2791 -11096.1545 -10076.7123 179.8843 -592.1872 -488.5339 29466.4342 3.5186 3.6597
TCL: Running 100000 steps at 210 kelvin.
TCL: Setting parameter langevinTemp to 210
TCL: Running for 100000 steps
ETITLE: TS BOND ANGLE DIHED IMPRP ELECT VDW BOUNDARY MISC KINETIC TOTAL TEMP POTENTIAL TOTAL3 TEMPAVG PRESSURE GPRESSURE VOLUME PRESSAVG GPRESSAVG
ENERGY: 600000 0.0000 0.0000 0.0000 0.0000 -13154.5489 2058.3944 0.0000 0.0000 1016.9931 -10079.1613 173.1892 -11096.1545 -10077.5004 173.1892 -560.1727 -489.5377 29466.4342 -560.1727 -489.5377
ENERGY: 700000 0.0000 0.0000 0.0000 0.0000 -12566.4968 1868.2770 0.0000 0.0000 1265.0889 -9433.1309 215.4388 -10698.2198 -9429.7774 210.4978 -290.2101 -194.3096 29045.9503 4.1576 4.0524
TCL: Running 100000 steps at 240 kelvin.
TCL: Setting parameter langevinTemp to 240
TCL: Running for 100000 steps
ETITLE: TS BOND ANGLE DIHED IMPRP ELECT VDW BOUNDARY MISC KINETIC TOTAL TEMP POTENTIAL TOTAL3 TEMPAVG PRESSURE GPRESSURE VOLUME PRESSAVG GPRESSAVG
ENERGY: 700000 0.0000 0.0000 0.0000 0.0000 -12566.4968 1868.2770 0.0000 0.0000 1264.4547 -9433.7651 215.3308 -10698.2198 -9431.7605 215.3308 -263.3330 -194.5675 29045.9503 -263.3330 -194.5675
ENERGY: 800000 0.0000 0.0000 0.0000 0.0000 -11849.5320 1640.0894 0.0000 0.0000 1426.9648 -8782.4777 243.0055 -10209.4426 -8780.6116 239.9123 -744.6854 -646.1196 29623.0795 3.1201 3.2183
TCL: Running 100000 steps at 270 kelvin.
TCL: Setting parameter langevinTemp to 270
TCL: Running for 100000 steps
ETITLE: TS BOND ANGLE DIHED IMPRP ELECT VDW BOUNDARY MISC KINETIC TOTAL TEMP POTENTIAL TOTAL3 TEMPAVG PRESSURE GPRESSURE VOLUME PRESSAVG GPRESSAVG
ENERGY: 800000 0.0000 0.0000 0.0000 0.0000 -11849.5320 1640.0894 0.0000 0.0000 1426.2688 -8783.1737 242.8870 -10209.4426 -8780.6237 242.8870 -723.1945 -647.7778 29623.0795 -723.1945 -647.7778
ENERGY: 900000 0.0000 0.0000 0.0000 0.0000 -11432.4775 1583.7062 0.0000 0.0000 1588.4105 -8260.3608 270.4990 -9848.7712 -8259.6915 269.7522 -69.5084 17.3900 30057.8700 3.3687 3.3819
TCL: Running 1000000 steps at 300 kelvin.
TCL: Setting parameter langevinTemp to 300
TCL: Running for 1000000 steps
ETITLE: TS BOND ANGLE DIHED IMPRP ELECT VDW BOUNDARY MISC KINETIC TOTAL TEMP POTENTIAL TOTAL3 TEMPAVG PRESSURE GPRESSURE VOLUME PRESSAVG GPRESSAVG
ENERGY: 900000 0.0000 0.0000 0.0000 0.0000 -11432.4775 1583.7062 0.0000 0.0000 1587.5965 -8261.1747 270.3604 -9848.7712 -8258.4016 270.3604 -78.7797 15.7559 30057.8700 -78.7797 15.7559
ENERGY: 1100000 0.0000 0.0000 0.0000 0.0000 -10916.4208 1454.8413 0.0000 0.0000 1812.4715 -7649.1080 308.6556 -9461.5795 -7645.7021 300.2351 -56.3863 23.7693 30770.6792 3.8578 3.6718
ENERGY: 1300000 0.0000 0.0000 0.0000 0.0000 -10906.4062 1489.1458 0.0000 0.0000 1695.1306 -7722.1298 288.6729 -9417.2603 -7718.6090 300.5204 262.3254 348.2015 30599.4381 2.4349 2.2805
ENERGY: 1500000 0.0000 0.0000 0.0000 0.0000 -10846.6633 1416.8516 0.0000 0.0000 1714.0070 -7715.8047 291.8875 -9429.8117 -7712.9250 300.4477 -538.2359 -400.5576 31127.8335 2.9108 3.0584
ENERGY: 1700000 0.0000 0.0000 0.0000 0.0000 -10799.6675 1347.1055 0.0000 0.0000 1754.8570 -7697.7050 298.8441 -9452.5620 -7693.7176 300.3292 -652.9264 -657.6659 30497.2296 3.6817 3.6954
ENERGY: 1900000 0.0000 0.0000 0.0000 0.0000 -10815.2957 1427.3112 0.0000 0.0000 1761.1385 -7626.8460 299.9138 -9387.9845 -7625.4199 300.3727 -76.6566 4.3884 30821.2955 3.0893 3.0112
TCL: Exiting due to exit command.
