Info: SIMULATION PARAMETERS:
Info: TIMESTEP               2
Info: NUMBER OF STEPS        0
Info: STEPS PER CYCLE        10
Info: PERIODIC CELL BASIS 1  37.968 0 0
Info: PERIODIC CELL BASIS 2  0 35.847 0
Info: PERIODIC CELL BASIS 3  0 0 31.349
Info: PERIODIC CELL CENTER   0 0 0
Info: WRAPPING WATERS AROUND PERIODIC BOUNDARIES ON OUTPUT.
Info: WRAPPING ALL CLUSTERS AROUND PERIODIC BOUNDARIES ON OUTPUT.
Info: FIRST LDB TIMESTEP     50
Info: LAST LDB TIMESTEP     -1
Info: HOM BACKGROUND SCALING 1
Info: PME BACKGROUND SCALING 1
Info: MIN ATOMS PER PATCH    40
Info: EMPTY PATCH LOAD       40 ATOMS
Info: INITIAL TEMPERATURE    300
Info: CENTER OF MASS MOVING INITIALLY? NO
Info: DIELECTRIC             1
Info: EXCLUDE                SCALED ONE-FOUR
Info: 1-4 ELECTROSTATICS SCALED BY 0.833333
Info: MODIFIED 1-4 VDW PARAMETERS WILL BE USED
Info: DCD FILENAME           mobley_9007496_equil.dcd
Info: DCD FREQUENCY          100000
Info: DCD FIRST STEP         100000
Info: DCD FILE WILL CONTAIN UNIT CELL DATA
Info: XST FILENAME           mobley_9007496_equil.xst
Info: XST FREQUENCY          100000
Info: NO VELOCITY DCD OUTPUT
Info: NO FORCE DCD OUTPUT
Info: OUTPUT FILENAME        mobley_9007496_equil
Info: BINARY OUTPUT FILES WILL BE USED
Info: RESTART FILENAME       mobley_9007496_equil.restart
Info: RESTART FREQUENCY      100000
Info: BINARY RESTART FILES WILL BE USED
Info: CUTOFF                 9
Info: PAIRLIST DISTANCE      11
Info: PAIRLIST SHRINK RATE   0.01
Info: PAIRLIST GROW RATE     0.01
Info: PAIRLIST TRIGGER       0.3
Info: PAIRLISTS PER CYCLE    2
Info: PAIRLISTS ENABLED
Info: MARGIN                 8
Info: HYDROGEN GROUP CUTOFF  2.5
Info: PATCH DIMENSION        21.5
Info: ENERGY OUTPUT STEPS    100000
Info: ENERGY EVALUATION STEPS    100000
Info: OUTPUT ENERGY PRECISION 4
Info: CROSSTERM ENERGY INCLUDED IN DIHEDRAL
Info: TIMING OUTPUT STEPS    1000000
Info: PRESSURE OUTPUT STEPS  100000
Info: FIXED ATOMS ACTIVE
Info: LANGEVIN DYNAMICS ACTIVE
Info: LANGEVIN TEMPERATURE   30
Info: LANGEVIN USING BBK INTEGRATOR
Info: LANGEVIN DAMPING COEFFICIENT IS 1 INVERSE PS
Info: LANGEVIN DYNAMICS APPLIED TO HYDROGENS
Info: LANGEVIN PISTON PRESSURE CONTROL ACTIVE
Info:        TARGET PRESSURE IS 1.01325 BAR
Info:     OSCILLATION PERIOD IS 50 FS
Info:             DECAY TIME IS 25 FS
Info:     PISTON TEMPERATURE IS 300 K
Info:       PRESSURE CONTROL IS GROUP-BASED
Info:    INITIAL STRAIN RATE IS 0 0 0
Info:       CELL FLUCTUATION IS ISOTROPIC
Info: PARTICLE MESH EWALD (PME) ACTIVE
Info: PME TOLERANCE               1e-06
Info: PME EWALD COEFFICIENT       0.348832
Info: PME INTERPOLATION ORDER     4
Info: PME GRID DIMENSIONS         40 36 32
Info: PME MAXIMUM GRID SPACING    1
Info: FULL ELECTROSTATIC EVALUATION FREQUENCY      2
Info: USING VERLET I (r-RESPA) MTS SCHEME.
Info: C1 SPLITTING OF LONG RANGE ELECTROSTATICS
Info: PLACING ATOMS IN PATCHES BY HYDROGEN GROUPS
Info: RIGID BONDS TO HYDROGEN : ALL
Info:         ERROR TOLERANCE : 1e-08
Info:          MAX ITERATIONS : 100
Info: RIGID WATER USING SETTLE ALGORITHM
Info: RANDOM NUMBER SEED     1744762978
Info: USE HYDROGEN BONDS?    NO
Info: Using AMBER format force field!
Info: AMBER PARM FILE        mobley_9007496.prmtop
Info: COORDINATE PDB         mobley_9007496.pdb
Info: Exclusions will be read from PARM file!
Info: SCNB (VDW SCALING)     2
Info: USING ARITHMETIC MEAN TO COMBINE L-J SIGMA PARAMETERS
Info: BINARY COORDINATES     mobley_9007496_min.coor
Info: SUMMARY OF PARAMETERS:
Info: 11 BONDS
Info: 12 ANGLES
Info:   12 HARMONIC
Info:   0 COSINE-BASED
Info: 7 DIHEDRAL
Info: 0 IMPROPER
Info: 0 CROSSTERM
Info: 0 VDW
Info: 55 VDW_PAIRS
Info: 0 NBTHOLE_PAIRS
Info: STRUCTURE SUMMARY:
Info: 2909 ATOMS
Info: 2910 BONDS
Info: 43 ANGLES
Info: 71 DIHEDRALS
Info: 0 IMPROPERS
Info: 0 CROSSTERMS
Info: 3005 EXCLUSIONS
Info: 26 FIXED ATOMS
Info: 2894 RIGID BONDS
Info: 11 RIGID BONDS BETWEEN FIXED ATOMS
Info: 5766 DEGREES OF FREEDOM
Info: 976 HYDROGEN GROUPS
Info: 4 ATOMS IN LARGEST HYDROGEN GROUP
Info: 976 MIGRATION GROUPS
Info: 4 ATOMS IN LARGEST MIGRATION GROUP
Info: 15 HYDROGEN GROUPS WITH ALL ATOMS FIXED
Info: TOTAL MASS = 17514.6 amu
Info: TOTAL CHARGE = 0.000300014 e
Info: MASS DENSITY = 0.681656 g/cm^3
Info: ATOM DENSITY = 0.0681788 atoms/A^3
Info: ADDED 0 IMPLICIT EXCLUSIONS
Info: NONBONDED TABLE R-SQUARED SPACING: 0.0625
Info: NONBONDED TABLE SIZE: 705 POINTS
Info: REMOVING COM VELOCITY 0.107619 0.0333263 -0.143584
TCL: Running for 100000 steps
ETITLE: TS BOND ANGLE DIHED IMPRP ELECT VDW BOUNDARY MISC KINETIC TOTAL TEMP POTENTIAL TOTAL3 TEMPAVG PRESSURE GPRESSURE VOLUME PRESSAVG GPRESSAVG
ENERGY: 0 0.0000 0.0000 0.0000 0.0000 -13543.5872 2333.2399 0.0000 0.0000 1667.3288 -9543.0185 291.0295 -11210.3472 -9542.7153 291.0295 267.8031 305.4852 42667.2084 267.8031 305.4852
ENERGY: 100000 0.0000 0.0000 0.0000 0.0000 -14113.0877 2506.4988 0.0000 0.0000 171.8279 -11434.7609 29.9923 -11606.5889 -11434.3244 30.8330 567.2283 595.4231 29324.5215 5.6343 5.6576
TCL: Running 100000 steps at 60 kelvin.
TCL: Setting parameter langevinTemp to 60
TCL: Running for 100000 steps
ETITLE: TS BOND ANGLE DIHED IMPRP ELECT VDW BOUNDARY MISC KINETIC TOTAL TEMP POTENTIAL TOTAL3 TEMPAVG PRESSURE GPRESSURE VOLUME PRESSAVG GPRESSAVG
ENERGY: 100000 0.0000 0.0000 0.0000 0.0000 -14113.0877 2506.4988 0.0000 0.0000 171.7455 -11434.8434 29.9779 -11606.5889 -11434.5251 29.9779 556.7484 595.4795 29324.5215 556.7484 595.4795
ENERGY: 200000 0.0000 0.0000 0.0000 0.0000 -13990.8190 2447.7446 0.0000 0.0000 336.1038 -11206.9705 58.6664 -11543.0743 -11206.3197 60.1000 479.0490 504.6578 28965.3270 3.8074 3.7886
TCL: Running 100000 steps at 90 kelvin.
TCL: Setting parameter langevinTemp to 90
TCL: Running for 100000 steps
ETITLE: TS BOND ANGLE DIHED IMPRP ELECT VDW BOUNDARY MISC KINETIC TOTAL TEMP POTENTIAL TOTAL3 TEMPAVG PRESSURE GPRESSURE VOLUME PRESSAVG GPRESSAVG
ENERGY: 200000 0.0000 0.0000 0.0000 0.0000 -13990.8190 2447.7446 0.0000 0.0000 335.9390 -11207.1353 58.6376 -11543.0743 -11206.5897 58.6376 464.6328 504.7531 28965.3270 464.6328 504.7531
ENERGY: 300000 0.0000 0.0000 0.0000 0.0000 -13852.2064 2374.9356 0.0000 0.0000 507.0816 -10970.1891 88.5103 -11477.2708 -10969.1105 89.9511 249.9900 271.6774 28814.8533 3.7864 3.6555
TCL: Running 100000 steps at 120 kelvin.
TCL: Setting parameter langevinTemp to 120
TCL: Running for 100000 steps
ETITLE: TS BOND ANGLE DIHED IMPRP ELECT VDW BOUNDARY MISC KINETIC TOTAL TEMP POTENTIAL TOTAL3 TEMPAVG PRESSURE GPRESSURE VOLUME PRESSAVG GPRESSAVG
ENERGY: 300000 0.0000 0.0000 0.0000 0.0000 -13852.2064 2374.9356 0.0000 0.0000 506.8191 -10970.4517 88.4644 -11477.2708 -10969.2801 88.4644 213.3245 271.0533 28814.8533 213.3245 271.0533
ENERGY: 400000 0.0000 0.0000 0.0000 0.0000 -13527.5631 2184.1839 0.0000 0.0000 703.4122 -10639.9670 122.7794 -11343.3792 -10637.7737 119.9948 -711.3349 -658.3774 28514.9682 4.7190 4.8051
TCL: Running 100000 steps at 150 kelvin.
TCL: Setting parameter langevinTemp to 150
TCL: Running for 100000 steps
ETITLE: TS BOND ANGLE DIHED IMPRP ELECT VDW BOUNDARY MISC KINETIC TOTAL TEMP POTENTIAL TOTAL3 TEMPAVG PRESSURE GPRESSURE VOLUME PRESSAVG GPRESSAVG
ENERGY: 400000 0.0000 0.0000 0.0000 0.0000 -13527.5631 2184.1839 0.0000 0.0000 703.0775 -10640.3017 122.7210 -11343.3792 -10639.0342 122.7210 -725.4748 -658.3242 28514.9682 -725.4748 -658.3242
ENERGY: 500000 0.0000 0.0000 0.0000 0.0000 -13300.7501 2102.6316 0.0000 0.0000 848.6522 -10349.4663 148.1308 -11198.1185 -10348.7121 150.1906 -817.9730 -803.0191 28524.1974 3.5775 3.6566
TCL: Running 100000 steps at 180 kelvin.
TCL: Setting parameter langevinTemp to 180
TCL: Running for 100000 steps
ETITLE: TS BOND ANGLE DIHED IMPRP ELECT VDW BOUNDARY MISC KINETIC TOTAL TEMP POTENTIAL TOTAL3 TEMPAVG PRESSURE GPRESSURE VOLUME PRESSAVG GPRESSAVG
ENERGY: 500000 0.0000 0.0000 0.0000 0.0000 -13300.7501 2102.6316 0.0000 0.0000 848.2082 -10349.9102 148.0533 -11198.1185 -10347.8765 148.0533 -853.0329 -804.7839 28524.1974 -853.0329 -804.7839
ENERGY: 600000 0.0000 0.0000 0.0000 0.0000 -12941.7278 2028.7029 0.0000 0.0000 1045.5799 -9867.4450 182.5043 -10913.0250 -9864.5895 180.0784 -560.9775 -456.7253 28844.7460 3.2059 3.1653
TCL: Running 100000 steps at 210 kelvin.
TCL: Setting parameter langevinTemp to 210
TCL: Running for 100000 steps
ETITLE: TS BOND ANGLE DIHED IMPRP ELECT VDW BOUNDARY MISC KINETIC TOTAL TEMP POTENTIAL TOTAL3 TEMPAVG PRESSURE GPRESSURE VOLUME PRESSAVG GPRESSAVG
ENERGY: 600000 0.0000 0.0000 0.0000 0.0000 -12941.7278 2028.7029 0.0000 0.0000 1045.0634 -9867.9616 182.4141 -10913.0250 -9865.9035 182.4141 -510.1462 -455.9944 28844.7460 -510.1462 -455.9944
ENERGY: 700000 0.0000 0.0000 0.0000 0.0000 -12453.5233 1936.6815 0.0000 0.0000 1173.4542 -9343.3875 204.8245 -10516.8418 -9340.7147 209.5007 513.3210 622.4326 27988.4398 2.9382 2.9078
TCL: Running 100000 steps at 240 kelvin.
TCL: Setting parameter langevinTemp to 240
TCL: Running for 100000 steps
ETITLE: TS BOND ANGLE DIHED IMPRP ELECT VDW BOUNDARY MISC KINETIC TOTAL TEMP POTENTIAL TOTAL3 TEMPAVG PRESSURE GPRESSURE VOLUME PRESSAVG GPRESSAVG
ENERGY: 700000 0.0000 0.0000 0.0000 0.0000 -12453.5233 1936.6815 0.0000 0.0000 1172.8353 -9344.0065 204.7165 -10516.8418 -9341.8924 204.7165 547.7732 622.4462 27988.4398 547.7732 622.4462
ENERGY: 800000 0.0000 0.0000 0.0000 0.0000 -11702.6847 1678.6567 0.0000 0.0000 1356.0925 -8667.9355 236.7037 -10024.0280 -8664.4166 239.4566 -140.2075 -24.1756 28722.3719 5.3455 5.1555
TCL: Running 100000 steps at 270 kelvin.
TCL: Setting parameter langevinTemp to 270
TCL: Running for 100000 steps
ETITLE: TS BOND ANGLE DIHED IMPRP ELECT VDW BOUNDARY MISC KINETIC TOTAL TEMP POTENTIAL TOTAL3 TEMPAVG PRESSURE GPRESSURE VOLUME PRESSAVG GPRESSAVG
ENERGY: 800000 0.0000 0.0000 0.0000 0.0000 -11702.6847 1678.6567 0.0000 0.0000 1355.3808 -8668.6472 236.5795 -10024.0280 -8666.7087 236.5795 -106.7686 -23.2247 28722.3719 -106.7686 -23.2247
ENERGY: 900000 0.0000 0.0000 0.0000 0.0000 -11231.5795 1550.2339 0.0000 0.0000 1556.9640 -8124.3816 271.7655 -9681.3456 -8121.5322 269.6551 -198.5488 -144.2887 29407.4029 2.4453 2.6247
TCL: Running 1000000 steps at 300 kelvin.
TCL: Setting parameter langevinTemp to 300
TCL: Running for 1000000 steps
ETITLE: TS BOND ANGLE DIHED IMPRP ELECT VDW BOUNDARY MISC KINETIC TOTAL TEMP POTENTIAL TOTAL3 TEMPAVG PRESSURE GPRESSURE VOLUME PRESSAVG GPRESSAVG
ENERGY: 900000 0.0000 0.0000 0.0000 0.0000 -11231.5795 1550.2339 0.0000 0.0000 1556.1985 -8125.1470 271.6319 -9681.3456 -8122.8761 271.6319 -242.6357 -143.7561 29407.4029 -242.6357 -143.7561
ENERGY: 1100000 0.0000 0.0000 0.0000 0.0000 -10637.9275 1396.7335 0.0000 0.0000 1674.2281 -7566.9658 292.2338 -9241.1940 -7565.9613 300.1967 -118.8552 -12.7349 29574.0134 3.2465 3.3364
ENERGY: 1300000 0.0000 0.0000 0.0000 0.0000 -10529.6218 1341.2138 0.0000 0.0000 1707.7572 -7480.6507 298.0862 -9188.4080 -7477.9745 299.8521 -376.4350 -332.1488 29878.1816 2.7976 2.6907
ENERGY: 1500000 0.0000 0.0000 0.0000 0.0000 -10732.3570 1480.2409 0.0000 0.0000 1702.5219 -7549.5942 297.1724 -9252.1161 -7542.9889 299.5167 575.7417 644.5646 29801.1505 3.4946 3.4299
ENERGY: 1700000 0.0000 0.0000 0.0000 0.0000 -10671.3349 1454.5744 0.0000 0.0000 1715.4010 -7501.3596 299.4204 -9216.7605 -7497.0863 299.3394 579.8079 633.3386 29601.9875 2.8996 2.9284
ENERGY: 1900000 0.0000 0.0000 0.0000 0.0000 -10760.0731 1508.6804 0.0000 0.0000 1768.3599 -7483.0328 308.6643 -9251.3926 -7478.3123 300.0039 1010.1520 1151.8838 29478.4389 2.5922 2.6299
TCL: Exiting due to exit command.
