Info: SIMULATION PARAMETERS:
Info: TIMESTEP               2
Info: NUMBER OF STEPS        0
Info: STEPS PER CYCLE        10
Info: PERIODIC CELL BASIS 1  36.592 0 0
Info: PERIODIC CELL BASIS 2  0 35.267 0
Info: PERIODIC CELL BASIS 3  0 0 34.229
Info: PERIODIC CELL CENTER   0 0 0
Info: WRAPPING WATERS AROUND PERIODIC BOUNDARIES ON OUTPUT.
Info: WRAPPING ALL CLUSTERS AROUND PERIODIC BOUNDARIES ON OUTPUT.
Info: FIRST LDB TIMESTEP     50
Info: LAST LDB TIMESTEP     -1
Info: HOM BACKGROUND SCALING 1
Info: PME BACKGROUND SCALING 1
Info: MIN ATOMS PER PATCH    40
Info: EMPTY PATCH LOAD       40 ATOMS
Info: INITIAL TEMPERATURE    300
Info: CENTER OF MASS MOVING INITIALLY? NO
Info: DIELECTRIC             1
Info: EXCLUDE                SCALED ONE-FOUR
Info: 1-4 ELECTROSTATICS SCALED BY 0.833333
Info: MODIFIED 1-4 VDW PARAMETERS WILL BE USED
Info: DCD FILENAME           mobley_5760563_equil.dcd
Info: DCD FREQUENCY          100000
Info: DCD FIRST STEP         100000
Info: DCD FILE WILL CONTAIN UNIT CELL DATA
Info: XST FILENAME           mobley_5760563_equil.xst
Info: XST FREQUENCY          100000
Info: NO VELOCITY DCD OUTPUT
Info: NO FORCE DCD OUTPUT
Info: OUTPUT FILENAME        mobley_5760563_equil
Info: BINARY OUTPUT FILES WILL BE USED
Info: RESTART FILENAME       mobley_5760563_equil.restart
Info: RESTART FREQUENCY      100000
Info: BINARY RESTART FILES WILL BE USED
Info: CUTOFF                 9
Info: PAIRLIST DISTANCE      11
Info: PAIRLIST SHRINK RATE   0.01
Info: PAIRLIST GROW RATE     0.01
Info: PAIRLIST TRIGGER       0.3
Info: PAIRLISTS PER CYCLE    2
Info: PAIRLISTS ENABLED
Info: MARGIN                 8
Info: HYDROGEN GROUP CUTOFF  2.5
Info: PATCH DIMENSION        21.5
Info: ENERGY OUTPUT STEPS    100000
Info: ENERGY EVALUATION STEPS    100000
Info: OUTPUT ENERGY PRECISION 4
Info: CROSSTERM ENERGY INCLUDED IN DIHEDRAL
Info: TIMING OUTPUT STEPS    1000000
Info: PRESSURE OUTPUT STEPS  100000
Info: FIXED ATOMS ACTIVE
Info: LANGEVIN DYNAMICS ACTIVE
Info: LANGEVIN TEMPERATURE   30
Info: LANGEVIN USING BBK INTEGRATOR
Info: LANGEVIN DAMPING COEFFICIENT IS 1 INVERSE PS
Info: LANGEVIN DYNAMICS APPLIED TO HYDROGENS
Info: LANGEVIN PISTON PRESSURE CONTROL ACTIVE
Info:        TARGET PRESSURE IS 1.01325 BAR
Info:     OSCILLATION PERIOD IS 50 FS
Info:             DECAY TIME IS 25 FS
Info:     PISTON TEMPERATURE IS 300 K
Info:       PRESSURE CONTROL IS GROUP-BASED
Info:    INITIAL STRAIN RATE IS 0 0 0
Info:       CELL FLUCTUATION IS ISOTROPIC
Info: PARTICLE MESH EWALD (PME) ACTIVE
Info: PME TOLERANCE               1e-06
Info: PME EWALD COEFFICIENT       0.348832
Info: PME INTERPOLATION ORDER     4
Info: PME GRID DIMENSIONS         40 36 36
Info: PME MAXIMUM GRID SPACING    1
Info: FULL ELECTROSTATIC EVALUATION FREQUENCY      2
Info: USING VERLET I (r-RESPA) MTS SCHEME.
Info: C1 SPLITTING OF LONG RANGE ELECTROSTATICS
Info: PLACING ATOMS IN PATCHES BY HYDROGEN GROUPS
Info: RIGID BONDS TO HYDROGEN : ALL
Info:         ERROR TOLERANCE : 1e-08
Info:          MAX ITERATIONS : 100
Info: RIGID WATER USING SETTLE ALGORITHM
Info: RANDOM NUMBER SEED     1744764355
Info: USE HYDROGEN BONDS?    NO
Info: Using AMBER format force field!
Info: AMBER PARM FILE        mobley_5760563.prmtop
Info: COORDINATE PDB         mobley_5760563.pdb
Info: Exclusions will be read from PARM file!
Info: SCNB (VDW SCALING)     2
Info: USING ARITHMETIC MEAN TO COMBINE L-J SIGMA PARAMETERS
Info: BINARY COORDINATES     mobley_5760563_min.coor
Info: SUMMARY OF PARAMETERS:
Info: 6 BONDS
Info: 6 ANGLES
Info:   6 HARMONIC
Info:   0 COSINE-BASED
Info: 2 DIHEDRAL
Info: 0 IMPROPER
Info: 0 CROSSTERM
Info: 0 VDW
Info: 28 VDW_PAIRS
Info: 0 NBTHOLE_PAIRS
Info: STRUCTURE SUMMARY:
Info: 2920 ATOMS
Info: 2919 BONDS
Info: 20 ANGLES
Info: 12 DIHEDRALS
Info: 0 IMPROPERS
Info: 0 CROSSTERMS
Info: 2951 EXCLUSIONS
Info: 13 FIXED ATOMS
Info: 2913 RIGID BONDS
Info: 6 RIGID BONDS BETWEEN FIXED ATOMS
Info: 5814 DEGREES OF FREEDOM
Info: 976 HYDROGEN GROUPS
Info: 4 ATOMS IN LARGEST HYDROGEN GROUP
Info: 976 MIGRATION GROUPS
Info: 4 ATOMS IN LARGEST MIGRATION GROUP
Info: 7 HYDROGEN GROUPS WITH ALL ATOMS FIXED
Info: TOTAL MASS = 17583.6 amu
Info: TOTAL CHARGE = 0.000100158 e
Info: MASS DENSITY = 0.661027 g/cm^3
Info: ATOM DENSITY = 0.0661049 atoms/A^3
Info: ADDED 0 IMPLICIT EXCLUSIONS
Info: NONBONDED TABLE R-SQUARED SPACING: 0.0625
Info: NONBONDED TABLE SIZE: 705 POINTS
Info: REMOVING COM VELOCITY -0.0367997 0.148692 -0.0599853
TCL: Running for 100000 steps
ETITLE: TS BOND ANGLE DIHED IMPRP ELECT VDW BOUNDARY MISC KINETIC TOTAL TEMP POTENTIAL TOTAL3 TEMPAVG PRESSURE GPRESSURE VOLUME PRESSAVG GPRESSAVG
ENERGY: 0 0.0000 0.0000 0.0000 0.0000 -13826.6754 2382.9411 0.0000 0.0000 1743.5623 -9700.1721 301.8233 -11443.7343 -9699.8521 301.8233 438.8195 473.0932 44172.1844 438.8195 473.0932
ENERGY: 100000 0.0000 0.0000 0.0000 0.0000 -14289.4919 2362.9738 0.0000 0.0000 175.4158 -11751.1023 30.3658 -11926.5181 -11750.6661 30.9684 -665.4092 -629.7365 28912.2746 4.2980 4.3038
TCL: Running 100000 steps at 60 kelvin.
TCL: Setting parameter langevinTemp to 60
TCL: Running for 100000 steps
ETITLE: TS BOND ANGLE DIHED IMPRP ELECT VDW BOUNDARY MISC KINETIC TOTAL TEMP POTENTIAL TOTAL3 TEMPAVG PRESSURE GPRESSURE VOLUME PRESSAVG GPRESSAVG
ENERGY: 100000 0.0000 0.0000 0.0000 0.0000 -14289.4919 2362.9738 0.0000 0.0000 175.3295 -11751.1886 30.3508 -11926.5181 -11750.8064 30.3508 -680.8797 -629.8185 28912.2746 -680.8797 -629.8185
ENERGY: 200000 0.0000 0.0000 0.0000 0.0000 -14179.8160 2314.7927 0.0000 0.0000 355.9423 -11509.0811 61.6162 -11865.0234 -11508.0260 59.9407 -860.1758 -805.2517 28785.6737 4.6092 4.6374
TCL: Running 100000 steps at 90 kelvin.
TCL: Setting parameter langevinTemp to 90
TCL: Running for 100000 steps
ETITLE: TS BOND ANGLE DIHED IMPRP ELECT VDW BOUNDARY MISC KINETIC TOTAL TEMP POTENTIAL TOTAL3 TEMPAVG PRESSURE GPRESSURE VOLUME PRESSAVG GPRESSAVG
ENERGY: 200000 0.0000 0.0000 0.0000 0.0000 -14179.8160 2314.7927 0.0000 0.0000 355.7771 -11509.2462 61.5876 -11865.0234 -11508.5175 61.5876 -868.7017 -804.8910 28785.6737 -868.7017 -804.8910
ENERGY: 300000 0.0000 0.0000 0.0000 0.0000 -14106.0621 2305.0371 0.0000 0.0000 517.8472 -11283.1778 89.6431 -11801.0250 -11281.5009 89.8847 -412.4919 -421.1552 28238.8772 4.3534 4.3030
TCL: Running 100000 steps at 120 kelvin.
TCL: Setting parameter langevinTemp to 120
TCL: Running for 100000 steps
ETITLE: TS BOND ANGLE DIHED IMPRP ELECT VDW BOUNDARY MISC KINETIC TOTAL TEMP POTENTIAL TOTAL3 TEMPAVG PRESSURE GPRESSURE VOLUME PRESSAVG GPRESSAVG
ENERGY: 300000 0.0000 0.0000 0.0000 0.0000 -14106.0621 2305.0371 0.0000 0.0000 517.5790 -11283.4461 89.5967 -11801.0250 -11282.2980 89.5967 -476.9625 -421.1475 28238.8772 -476.9625 -421.1475
ENERGY: 400000 0.0000 0.0000 0.0000 0.0000 -13991.0351 2354.6360 0.0000 0.0000 697.2845 -10939.1146 120.7050 -11636.3991 -10937.5368 120.0715 696.7276 722.6785 28105.2735 3.9553 4.0104
TCL: Running 100000 steps at 150 kelvin.
TCL: Setting parameter langevinTemp to 150
TCL: Running for 100000 steps
ETITLE: TS BOND ANGLE DIHED IMPRP ELECT VDW BOUNDARY MISC KINETIC TOTAL TEMP POTENTIAL TOTAL3 TEMPAVG PRESSURE GPRESSURE VOLUME PRESSAVG GPRESSAVG
ENERGY: 400000 0.0000 0.0000 0.0000 0.0000 -13991.0351 2354.6360 0.0000 0.0000 696.9302 -10939.4689 120.6437 -11636.3991 -10938.0231 120.6437 672.3791 721.9894 28105.2735 672.3791 721.9894
ENERGY: 500000 0.0000 0.0000 0.0000 0.0000 -13714.8744 2234.8672 0.0000 0.0000 866.6639 -10613.3433 150.0258 -11480.0072 -10611.9895 149.9595 194.4427 307.0819 28331.1197 2.2167 2.2048
TCL: Running 100000 steps at 180 kelvin.
TCL: Setting parameter langevinTemp to 180
TCL: Running for 100000 steps
ETITLE: TS BOND ANGLE DIHED IMPRP ELECT VDW BOUNDARY MISC KINETIC TOTAL TEMP POTENTIAL TOTAL3 TEMPAVG PRESSURE GPRESSURE VOLUME PRESSAVG GPRESSAVG
ENERGY: 500000 0.0000 0.0000 0.0000 0.0000 -13714.8744 2234.8672 0.0000 0.0000 866.2250 -10613.7822 149.9499 -11480.0072 -10612.2870 149.9499 244.0660 306.9873 28331.1197 244.0660 306.9873
ENERGY: 600000 0.0000 0.0000 0.0000 0.0000 -13521.1040 2261.4356 0.0000 0.0000 1043.5223 -10216.1462 180.6413 -11259.6684 -10213.8781 180.0231 874.1839 946.5539 28947.5601 2.4252 2.3161
TCL: Running 100000 steps at 210 kelvin.
TCL: Setting parameter langevinTemp to 210
TCL: Running for 100000 steps
ETITLE: TS BOND ANGLE DIHED IMPRP ELECT VDW BOUNDARY MISC KINETIC TOTAL TEMP POTENTIAL TOTAL3 TEMPAVG PRESSURE GPRESSURE VOLUME PRESSAVG GPRESSAVG
ENERGY: 600000 0.0000 0.0000 0.0000 0.0000 -13521.1040 2261.4356 0.0000 0.0000 1043.0114 -10216.6571 180.5529 -11259.6684 -10215.2853 180.5529 900.6477 947.6230 28947.5601 900.6477 947.6230
ENERGY: 700000 0.0000 0.0000 0.0000 0.0000 -12718.3401 1960.9453 0.0000 0.0000 1226.8400 -9530.5549 212.3749 -10757.3949 -9529.0781 209.8603 432.7611 537.5738 28636.3785 3.9635 3.9293
TCL: Running 100000 steps at 240 kelvin.
TCL: Setting parameter langevinTemp to 240
TCL: Running for 100000 steps
ETITLE: TS BOND ANGLE DIHED IMPRP ELECT VDW BOUNDARY MISC KINETIC TOTAL TEMP POTENTIAL TOTAL3 TEMPAVG PRESSURE GPRESSURE VOLUME PRESSAVG GPRESSAVG
ENERGY: 700000 0.0000 0.0000 0.0000 0.0000 -12718.3401 1960.9453 0.0000 0.0000 1226.2437 -9531.1512 212.2717 -10757.3949 -9529.6135 212.2717 463.0012 536.4847 28636.3785 463.0012 536.4847
ENERGY: 800000 0.0000 0.0000 0.0000 0.0000 -12141.0792 1773.8537 0.0000 0.0000 1398.7278 -8968.4976 242.1300 -10367.2255 -8965.4553 240.2170 138.3638 265.1956 28991.2062 3.3593 3.4095
TCL: Running 100000 steps at 270 kelvin.
TCL: Setting parameter langevinTemp to 270
TCL: Running for 100000 steps
ETITLE: TS BOND ANGLE DIHED IMPRP ELECT VDW BOUNDARY MISC KINETIC TOTAL TEMP POTENTIAL TOTAL3 TEMPAVG PRESSURE GPRESSURE VOLUME PRESSAVG GPRESSAVG
ENERGY: 800000 0.0000 0.0000 0.0000 0.0000 -12141.0792 1773.8537 0.0000 0.0000 1398.0391 -8969.1864 242.0108 -10367.2255 -8967.0749 242.0108 179.8492 266.1565 28991.2062 179.8492 266.1565
ENERGY: 900000 0.0000 0.0000 0.0000 0.0000 -11517.6296 1590.0423 0.0000 0.0000 1540.7186 -8386.8687 266.7096 -9927.5873 -8383.5658 269.5031 177.2894 196.6285 29418.9105 3.0690 3.0110
TCL: Running 1000000 steps at 300 kelvin.
TCL: Setting parameter langevinTemp to 300
TCL: Running for 1000000 steps
ETITLE: TS BOND ANGLE DIHED IMPRP ELECT VDW BOUNDARY MISC KINETIC TOTAL TEMP POTENTIAL TOTAL3 TEMPAVG PRESSURE GPRESSURE VOLUME PRESSAVG GPRESSAVG
ENERGY: 900000 0.0000 0.0000 0.0000 0.0000 -11517.6296 1590.0423 0.0000 0.0000 1539.9532 -8387.6342 266.5771 -9927.5873 -8385.2571 266.5771 115.1926 195.5243 29418.9105 115.1926 195.5243
ENERGY: 1100000 0.0000 0.0000 0.0000 0.0000 -10894.9432 1399.7433 0.0000 0.0000 1661.1268 -7834.0731 287.5532 -9495.1999 -7831.3947 300.1012 -420.6299 -325.6561 30231.8696 3.3452 3.1767
ENERGY: 1300000 0.0000 0.0000 0.0000 0.0000 -10978.8442 1442.0282 0.0000 0.0000 1700.4622 -7836.3538 294.3624 -9536.8160 -7833.5505 300.4424 -171.0488 -117.4753 30288.7271 3.1311 3.0885
ENERGY: 1500000 0.0000 0.0000 0.0000 0.0000 -10898.9023 1449.4987 0.0000 0.0000 1736.0496 -7713.3540 300.5228 -9449.4036 -7712.1541 300.1596 198.7656 296.3229 30382.3605 4.4987 4.2957
ENERGY: 1700000 0.0000 0.0000 0.0000 0.0000 -10858.5381 1409.0457 0.0000 0.0000 1715.3465 -7734.1460 296.9390 -9449.4925 -7732.7635 300.1464 -6.1452 96.2657 30249.4745 3.1516 3.0752
ENERGY: 1900000 0.0000 0.0000 0.0000 0.0000 -10857.0815 1381.3686 0.0000 0.0000 1755.6576 -7720.0552 303.9171 -9475.7129 -7716.4256 300.5068 -88.0484 9.3291 29594.0089 3.5496 3.3356
TCL: Exiting due to exit command.
