Info: SIMULATION PARAMETERS:
Info: TIMESTEP               2
Info: NUMBER OF STEPS        0
Info: STEPS PER CYCLE        10
Info: PERIODIC CELL BASIS 1  38.861 0 0
Info: PERIODIC CELL BASIS 2  0 34.696 0
Info: PERIODIC CELL BASIS 3  0 0 31.855
Info: PERIODIC CELL CENTER   0 0 0
Info: WRAPPING WATERS AROUND PERIODIC BOUNDARIES ON OUTPUT.
Info: WRAPPING ALL CLUSTERS AROUND PERIODIC BOUNDARIES ON OUTPUT.
Info: FIRST LDB TIMESTEP     50
Info: LAST LDB TIMESTEP     -1
Info: HOM BACKGROUND SCALING 1
Info: PME BACKGROUND SCALING 1
Info: MIN ATOMS PER PATCH    40
Info: EMPTY PATCH LOAD       40 ATOMS
Info: INITIAL TEMPERATURE    300
Info: CENTER OF MASS MOVING INITIALLY? NO
Info: DIELECTRIC             1
Info: EXCLUDE                SCALED ONE-FOUR
Info: 1-4 ELECTROSTATICS SCALED BY 0.833333
Info: MODIFIED 1-4 VDW PARAMETERS WILL BE USED
Info: DCD FILENAME           mobley_5538249_equil.dcd
Info: DCD FREQUENCY          100000
Info: DCD FIRST STEP         100000
Info: DCD FILE WILL CONTAIN UNIT CELL DATA
Info: XST FILENAME           mobley_5538249_equil.xst
Info: XST FREQUENCY          100000
Info: NO VELOCITY DCD OUTPUT
Info: NO FORCE DCD OUTPUT
Info: OUTPUT FILENAME        mobley_5538249_equil
Info: BINARY OUTPUT FILES WILL BE USED
Info: RESTART FILENAME       mobley_5538249_equil.restart
Info: RESTART FREQUENCY      100000
Info: BINARY RESTART FILES WILL BE USED
Info: CUTOFF                 9
Info: PAIRLIST DISTANCE      11
Info: PAIRLIST SHRINK RATE   0.01
Info: PAIRLIST GROW RATE     0.01
Info: PAIRLIST TRIGGER       0.3
Info: PAIRLISTS PER CYCLE    2
Info: PAIRLISTS ENABLED
Info: MARGIN                 8
Info: HYDROGEN GROUP CUTOFF  2.5
Info: PATCH DIMENSION        21.5
Info: ENERGY OUTPUT STEPS    100000
Info: ENERGY EVALUATION STEPS    100000
Info: OUTPUT ENERGY PRECISION 4
Info: CROSSTERM ENERGY INCLUDED IN DIHEDRAL
Info: TIMING OUTPUT STEPS    1000000
Info: PRESSURE OUTPUT STEPS  100000
Info: FIXED ATOMS ACTIVE
Info: LANGEVIN DYNAMICS ACTIVE
Info: LANGEVIN TEMPERATURE   30
Info: LANGEVIN USING BBK INTEGRATOR
Info: LANGEVIN DAMPING COEFFICIENT IS 1 INVERSE PS
Info: LANGEVIN DYNAMICS APPLIED TO HYDROGENS
Info: LANGEVIN PISTON PRESSURE CONTROL ACTIVE
Info:        TARGET PRESSURE IS 1.01325 BAR
Info:     OSCILLATION PERIOD IS 50 FS
Info:             DECAY TIME IS 25 FS
Info:     PISTON TEMPERATURE IS 300 K
Info:       PRESSURE CONTROL IS GROUP-BASED
Info:    INITIAL STRAIN RATE IS 0 0 0
Info:       CELL FLUCTUATION IS ISOTROPIC
Info: PARTICLE MESH EWALD (PME) ACTIVE
Info: PME TOLERANCE               1e-06
Info: PME EWALD COEFFICIENT       0.348832
Info: PME INTERPOLATION ORDER     4
Info: PME GRID DIMENSIONS         40 36 32
Info: PME MAXIMUM GRID SPACING    1
Info: FULL ELECTROSTATIC EVALUATION FREQUENCY      2
Info: USING VERLET I (r-RESPA) MTS SCHEME.
Info: C1 SPLITTING OF LONG RANGE ELECTROSTATICS
Info: PLACING ATOMS IN PATCHES BY HYDROGEN GROUPS
Info: RIGID BONDS TO HYDROGEN : ALL
Info:         ERROR TOLERANCE : 1e-08
Info:          MAX ITERATIONS : 100
Info: RIGID WATER USING SETTLE ALGORITHM
Info: RANDOM NUMBER SEED     1744726206
Info: USE HYDROGEN BONDS?    NO
Info: Using AMBER format force field!
Info: AMBER PARM FILE        mobley_5538249.prmtop
Info: COORDINATE PDB         mobley_5538249.pdb
Info: Exclusions will be read from PARM file!
Info: SCNB (VDW SCALING)     2
Info: USING ARITHMETIC MEAN TO COMBINE L-J SIGMA PARAMETERS
Info: BINARY COORDINATES     mobley_5538249_min.coor
Info: SUMMARY OF PARAMETERS:
Info: 7 BONDS
Info: 8 ANGLES
Info:   8 HARMONIC
Info:   0 COSINE-BASED
Info: 3 DIHEDRAL
Info: 0 IMPROPER
Info: 0 CROSSTERM
Info: 0 VDW
Info: 15 VDW_PAIRS
Info: 0 NBTHOLE_PAIRS
Info: STRUCTURE SUMMARY:
Info: 2926 ATOMS
Info: 2927 BONDS
Info: 36 ANGLES
Info: 64 DIHEDRALS
Info: 0 IMPROPERS
Info: 0 CROSSTERMS
Info: 3009 EXCLUSIONS
Info: 22 FIXED ATOMS
Info: 2911 RIGID BONDS
Info: 7 RIGID BONDS BETWEEN FIXED ATOMS
Info: 5808 DEGREES OF FREEDOM
Info: 983 HYDROGEN GROUPS
Info: 3 ATOMS IN LARGEST HYDROGEN GROUP
Info: 983 MIGRATION GROUPS
Info: 3 ATOMS IN LARGEST MIGRATION GROUP
Info: 15 HYDROGEN GROUPS WITH ALL ATOMS FIXED
Info: TOTAL MASS = 17697 amu
Info: TOTAL CHARGE = 1.11759e-08 e
Info: MASS DENSITY = 0.684208 g/cm^3
Info: ATOM DENSITY = 0.0681245 atoms/A^3
Info: ADDED 0 IMPLICIT EXCLUSIONS
Info: NONBONDED TABLE R-SQUARED SPACING: 0.0625
Info: NONBONDED TABLE SIZE: 705 POINTS
Info: REMOVING COM VELOCITY -0.0799711 0.0148018 0.0103091
TCL: Running for 100000 steps
ETITLE: TS BOND ANGLE DIHED IMPRP ELECT VDW BOUNDARY MISC KINETIC TOTAL TEMP POTENTIAL TOTAL3 TEMPAVG PRESSURE GPRESSURE VOLUME PRESSAVG GPRESSAVG
ENERGY: 0 0.0000 0.0000 0.0000 0.0000 -13579.0997 2338.9344 0.0000 0.0000 1725.9695 -9514.1958 299.0866 -11240.1653 -9513.8653 299.0866 128.5777 169.0690 42950.7736 128.5777 169.0690
ENERGY: 100000 0.0000 0.0000 0.0000 0.0000 -14042.5972 2555.0692 0.0000 0.0000 174.1117 -11313.4163 30.1711 -11487.5281 -11312.8312 30.7565 1056.5657 1097.5352 30409.8443 3.5994 3.6186
TCL: Running 100000 steps at 60 kelvin.
TCL: Setting parameter langevinTemp to 60
TCL: Running for 100000 steps
ETITLE: TS BOND ANGLE DIHED IMPRP ELECT VDW BOUNDARY MISC KINETIC TOTAL TEMP POTENTIAL TOTAL3 TEMPAVG PRESSURE GPRESSURE VOLUME PRESSAVG GPRESSAVG
ENERGY: 100000 0.0000 0.0000 0.0000 0.0000 -14042.5972 2555.0692 0.0000 0.0000 174.0253 -11313.5027 30.1562 -11487.5281 -11313.1382 30.1562 1043.1754 1097.8048 30409.8443 1043.1754 1097.8048
ENERGY: 200000 0.0000 0.0000 0.0000 0.0000 -14009.8300 2461.3243 0.0000 0.0000 353.9058 -11194.5999 61.3270 -11548.5057 -11193.7146 59.8760 460.4297 487.3460 29204.4785 4.5359 4.4308
TCL: Running 100000 steps at 90 kelvin.
TCL: Setting parameter langevinTemp to 90
TCL: Running for 100000 steps
ETITLE: TS BOND ANGLE DIHED IMPRP ELECT VDW BOUNDARY MISC KINETIC TOTAL TEMP POTENTIAL TOTAL3 TEMPAVG PRESSURE GPRESSURE VOLUME PRESSAVG GPRESSAVG
ENERGY: 200000 0.0000 0.0000 0.0000 0.0000 -14009.8300 2461.3243 0.0000 0.0000 353.7247 -11194.7811 61.2956 -11548.5057 -11194.1549 61.2956 432.3237 487.6154 29204.4785 432.3237 487.6154
ENERGY: 300000 0.0000 0.0000 0.0000 0.0000 -13809.5167 2348.9040 0.0000 0.0000 509.1329 -10951.4798 88.2257 -11460.6127 -10950.0233 89.7815 -150.9404 -46.8923 29083.4869 4.5478 4.4647
TCL: Running 100000 steps at 120 kelvin.
TCL: Setting parameter langevinTemp to 120
TCL: Running for 100000 steps
ETITLE: TS BOND ANGLE DIHED IMPRP ELECT VDW BOUNDARY MISC KINETIC TOTAL TEMP POTENTIAL TOTAL3 TEMPAVG PRESSURE GPRESSURE VOLUME PRESSAVG GPRESSAVG
ENERGY: 300000 0.0000 0.0000 0.0000 0.0000 -13809.5167 2348.9040 0.0000 0.0000 508.8797 -10951.7330 88.1818 -11460.6127 -10950.7457 88.1818 -101.9522 -46.5411 29083.4869 -101.9522 -46.5411
ENERGY: 400000 0.0000 0.0000 0.0000 0.0000 -13505.0022 2158.8518 0.0000 0.0000 727.5687 -10618.5817 126.0776 -11346.1504 -10615.7941 120.0255 -994.8478 -958.4500 28708.4447 5.0534 5.0002
TCL: Running 100000 steps at 150 kelvin.
TCL: Setting parameter langevinTemp to 150
TCL: Running for 100000 steps
ETITLE: TS BOND ANGLE DIHED IMPRP ELECT VDW BOUNDARY MISC KINETIC TOTAL TEMP POTENTIAL TOTAL3 TEMPAVG PRESSURE GPRESSURE VOLUME PRESSAVG GPRESSAVG
ENERGY: 400000 0.0000 0.0000 0.0000 0.0000 -13505.0022 2158.8518 0.0000 0.0000 727.2058 -10618.9446 126.0147 -11346.1504 -10617.4606 126.0147 -1018.8359 -958.1515 28708.4447 -1018.8359 -958.1515
ENERGY: 500000 0.0000 0.0000 0.0000 0.0000 -13375.8098 2169.8253 0.0000 0.0000 902.8682 -10303.1163 156.4545 -11205.9845 -10301.3020 149.7488 -380.8583 -326.9024 28733.6240 3.1848 3.2821
TCL: Running 100000 steps at 180 kelvin.
TCL: Setting parameter langevinTemp to 180
TCL: Running for 100000 steps
ETITLE: TS BOND ANGLE DIHED IMPRP ELECT VDW BOUNDARY MISC KINETIC TOTAL TEMP POTENTIAL TOTAL3 TEMPAVG PRESSURE GPRESSURE VOLUME PRESSAVG GPRESSAVG
ENERGY: 500000 0.0000 0.0000 0.0000 0.0000 -13375.8098 2169.8253 0.0000 0.0000 902.4361 -10303.5484 156.3796 -11205.9845 -10301.8593 156.3796 -371.7706 -326.4773 28733.6240 -371.7706 -326.4773
ENERGY: 600000 0.0000 0.0000 0.0000 0.0000 -12971.6323 2085.9100 0.0000 0.0000 1046.5632 -9839.1591 181.3549 -10885.7223 -9838.3521 179.8316 135.0121 181.8099 28433.2491 3.5520 3.5595
TCL: Running 100000 steps at 210 kelvin.
TCL: Setting parameter langevinTemp to 210
TCL: Running for 100000 steps
ETITLE: TS BOND ANGLE DIHED IMPRP ELECT VDW BOUNDARY MISC KINETIC TOTAL TEMP POTENTIAL TOTAL3 TEMPAVG PRESSURE GPRESSURE VOLUME PRESSAVG GPRESSAVG
ENERGY: 600000 0.0000 0.0000 0.0000 0.0000 -12971.6323 2085.9100 0.0000 0.0000 1046.0456 -9839.6767 181.2652 -10885.7223 -9837.5327 181.2652 114.6946 181.1762 28433.2491 114.6946 181.1762
ENERGY: 700000 0.0000 0.0000 0.0000 0.0000 -12318.0022 1894.1694 0.0000 0.0000 1199.0267 -9224.8061 207.7747 -10423.8328 -9220.8955 209.8673 467.1437 503.3971 28315.0331 3.6704 3.5820
TCL: Running 100000 steps at 240 kelvin.
TCL: Setting parameter langevinTemp to 240
TCL: Running for 100000 steps
ETITLE: TS BOND ANGLE DIHED IMPRP ELECT VDW BOUNDARY MISC KINETIC TOTAL TEMP POTENTIAL TOTAL3 TEMPAVG PRESSURE GPRESSURE VOLUME PRESSAVG GPRESSAVG
ENERGY: 700000 0.0000 0.0000 0.0000 0.0000 -12318.0022 1894.1694 0.0000 0.0000 1198.4223 -9225.4105 207.6699 -10423.8328 -9223.6827 207.6699 432.8339 506.2773 28315.0331 432.8339 506.2773
ENERGY: 800000 0.0000 0.0000 0.0000 0.0000 -11565.7884 1634.7146 0.0000 0.0000 1387.7948 -8543.2789 240.4856 -9931.0737 -8539.7871 240.1871 -312.2604 -181.4520 28808.5458 4.6616 4.5296
TCL: Running 100000 steps at 270 kelvin.
TCL: Setting parameter langevinTemp to 270
TCL: Running for 100000 steps
ETITLE: TS BOND ANGLE DIHED IMPRP ELECT VDW BOUNDARY MISC KINETIC TOTAL TEMP POTENTIAL TOTAL3 TEMPAVG PRESSURE GPRESSURE VOLUME PRESSAVG GPRESSAVG
ENERGY: 800000 0.0000 0.0000 0.0000 0.0000 -11565.7884 1634.7146 0.0000 0.0000 1387.1284 -8543.9454 240.3701 -9931.0737 -8541.4768 240.3701 -267.0011 -180.7455 28808.5458 -267.0011 -180.7455
ENERGY: 900000 0.0000 0.0000 0.0000 0.0000 -11134.5038 1489.9215 0.0000 0.0000 1546.9731 -8097.6091 268.0690 -9644.5822 -8094.5748 269.8658 -520.6611 -418.7778 29432.3674 3.7291 3.5833
TCL: Running 1000000 steps at 300 kelvin.
TCL: Setting parameter langevinTemp to 300
TCL: Running for 1000000 steps
ETITLE: TS BOND ANGLE DIHED IMPRP ELECT VDW BOUNDARY MISC KINETIC TOTAL TEMP POTENTIAL TOTAL3 TEMPAVG PRESSURE GPRESSURE VOLUME PRESSAVG GPRESSAVG
ENERGY: 900000 0.0000 0.0000 0.0000 0.0000 -11134.5038 1489.9215 0.0000 0.0000 1546.2039 -8098.3783 267.9357 -9644.5822 -8095.7253 267.9357 -508.0225 -418.5842 29432.3674 -508.0225 -418.5842
ENERGY: 1100000 0.0000 0.0000 0.0000 0.0000 -10717.3449 1474.3514 0.0000 0.0000 1752.9668 -7490.0266 303.7648 -9242.9934 -7483.6760 300.5265 518.8125 621.1599 29549.5645 3.0078 3.0248
ENERGY: 1300000 0.0000 0.0000 0.0000 0.0000 -10630.0597 1431.6735 0.0000 0.0000 1751.7380 -7446.6482 303.5519 -9198.3862 -7444.0907 300.1382 215.5907 259.5426 30052.3134 2.4740 2.2377
ENERGY: 1500000 0.0000 0.0000 0.0000 0.0000 -10508.7601 1356.7267 0.0000 0.0000 1741.6268 -7410.4066 301.7997 -9152.0334 -7407.2515 300.4248 -380.7602 -222.1041 29998.2955 3.3813 3.2939
ENERGY: 1700000 0.0000 0.0000 0.0000 0.0000 -10590.2382 1358.4972 0.0000 0.0000 1700.5221 -7531.2189 294.6769 -9231.7410 -7530.3093 300.4806 -731.6199 -614.3096 30397.9805 1.6729 1.6988
ENERGY: 1900000 0.0000 0.0000 0.0000 0.0000 -10722.8531 1448.6088 0.0000 0.0000 1644.0281 -7630.2161 284.8872 -9274.2442 -7626.1610 299.2261 90.3490 133.2075 29737.0783 3.4476 3.2663
TCL: Exiting due to exit command.
