Info: SIMULATION PARAMETERS:
Info: TIMESTEP               2
Info: NUMBER OF STEPS        0
Info: STEPS PER CYCLE        10
Info: PERIODIC CELL BASIS 1  39.546 0 0
Info: PERIODIC CELL BASIS 2  0 33.542 0
Info: PERIODIC CELL BASIS 3  0 0 33.152
Info: PERIODIC CELL CENTER   0 0 0
Info: WRAPPING WATERS AROUND PERIODIC BOUNDARIES ON OUTPUT.
Info: WRAPPING ALL CLUSTERS AROUND PERIODIC BOUNDARIES ON OUTPUT.
Info: FIRST LDB TIMESTEP     50
Info: LAST LDB TIMESTEP     -1
Info: HOM BACKGROUND SCALING 1
Info: PME BACKGROUND SCALING 1
Info: MIN ATOMS PER PATCH    40
Info: EMPTY PATCH LOAD       40 ATOMS
Info: INITIAL TEMPERATURE    300
Info: CENTER OF MASS MOVING INITIALLY? NO
Info: DIELECTRIC             1
Info: EXCLUDE                SCALED ONE-FOUR
Info: 1-4 ELECTROSTATICS SCALED BY 0.833333
Info: MODIFIED 1-4 VDW PARAMETERS WILL BE USED
Info: DCD FILENAME           mobley_1034539_equil.dcd
Info: DCD FREQUENCY          100000
Info: DCD FIRST STEP         100000
Info: DCD FILE WILL CONTAIN UNIT CELL DATA
Info: XST FILENAME           mobley_1034539_equil.xst
Info: XST FREQUENCY          100000
Info: NO VELOCITY DCD OUTPUT
Info: NO FORCE DCD OUTPUT
Info: OUTPUT FILENAME        mobley_1034539_equil
Info: BINARY OUTPUT FILES WILL BE USED
Info: RESTART FILENAME       mobley_1034539_equil.restart
Info: RESTART FREQUENCY      100000
Info: BINARY RESTART FILES WILL BE USED
Info: CUTOFF                 9
Info: PAIRLIST DISTANCE      11
Info: PAIRLIST SHRINK RATE   0.01
Info: PAIRLIST GROW RATE     0.01
Info: PAIRLIST TRIGGER       0.3
Info: PAIRLISTS PER CYCLE    2
Info: PAIRLISTS ENABLED
Info: MARGIN                 8
Info: HYDROGEN GROUP CUTOFF  2.5
Info: PATCH DIMENSION        21.5
Info: ENERGY OUTPUT STEPS    100000
Info: ENERGY EVALUATION STEPS    100000
Info: OUTPUT ENERGY PRECISION 4
Info: CROSSTERM ENERGY INCLUDED IN DIHEDRAL
Info: TIMING OUTPUT STEPS    1000000
Info: PRESSURE OUTPUT STEPS  100000
Info: FIXED ATOMS ACTIVE
Info: LANGEVIN DYNAMICS ACTIVE
Info: LANGEVIN TEMPERATURE   30
Info: LANGEVIN USING BBK INTEGRATOR
Info: LANGEVIN DAMPING COEFFICIENT IS 1 INVERSE PS
Info: LANGEVIN DYNAMICS APPLIED TO HYDROGENS
Info: LANGEVIN PISTON PRESSURE CONTROL ACTIVE
Info:        TARGET PRESSURE IS 1.01325 BAR
Info:     OSCILLATION PERIOD IS 50 FS
Info:             DECAY TIME IS 25 FS
Info:     PISTON TEMPERATURE IS 300 K
Info:       PRESSURE CONTROL IS GROUP-BASED
Info:    INITIAL STRAIN RATE IS 0 0 0
Info:       CELL FLUCTUATION IS ISOTROPIC
Info: PARTICLE MESH EWALD (PME) ACTIVE
Info: PME TOLERANCE               1e-06
Info: PME EWALD COEFFICIENT       0.348832
Info: PME INTERPOLATION ORDER     4
Info: PME GRID DIMENSIONS         40 36 36
Info: PME MAXIMUM GRID SPACING    1
Info: FULL ELECTROSTATIC EVALUATION FREQUENCY      2
Info: USING VERLET I (r-RESPA) MTS SCHEME.
Info: C1 SPLITTING OF LONG RANGE ELECTROSTATICS
Info: PLACING ATOMS IN PATCHES BY HYDROGEN GROUPS
Info: RIGID BONDS TO HYDROGEN : ALL
Info:         ERROR TOLERANCE : 1e-08
Info:          MAX ITERATIONS : 100
Info: RIGID WATER USING SETTLE ALGORITHM
Info: RANDOM NUMBER SEED     1744726019
Info: USE HYDROGEN BONDS?    NO
Info: Using AMBER format force field!
Info: AMBER PARM FILE        mobley_1034539.prmtop
Info: COORDINATE PDB         mobley_1034539.pdb
Info: Exclusions will be read from PARM file!
Info: SCNB (VDW SCALING)     2
Info: USING ARITHMETIC MEAN TO COMBINE L-J SIGMA PARAMETERS
Info: BINARY COORDINATES     mobley_1034539_min.coor
Info: SUMMARY OF PARAMETERS:
Info: 7 BONDS
Info: 8 ANGLES
Info:   8 HARMONIC
Info:   0 COSINE-BASED
Info: 3 DIHEDRAL
Info: 0 IMPROPER
Info: 0 CROSSTERM
Info: 0 VDW
Info: 15 VDW_PAIRS
Info: 0 NBTHOLE_PAIRS
Info: STRUCTURE SUMMARY:
Info: 2911 ATOMS
Info: 2912 BONDS
Info: 36 ANGLES
Info: 64 DIHEDRALS
Info: 0 IMPROPERS
Info: 0 CROSSTERMS
Info: 2994 EXCLUSIONS
Info: 22 FIXED ATOMS
Info: 2893 RIGID BONDS
Info: 4 RIGID BONDS BETWEEN FIXED ATOMS
Info: 5778 DEGREES OF FREEDOM
Info: 981 HYDROGEN GROUPS
Info: 3 ATOMS IN LARGEST HYDROGEN GROUP
Info: 981 MIGRATION GROUPS
Info: 3 ATOMS IN LARGEST MIGRATION GROUP
Info: 18 HYDROGEN GROUPS WITH ALL ATOMS FIXED
Info: TOTAL MASS = 17710.3 amu
Info: TOTAL CHARGE = -8.3819e-09 e
Info: MASS DENSITY = 0.668779 g/cm^3
Info: ATOM DENSITY = 0.0661974 atoms/A^3
Info: ADDED 0 IMPLICIT EXCLUSIONS
Info: NONBONDED TABLE R-SQUARED SPACING: 0.0625
Info: NONBONDED TABLE SIZE: 705 POINTS
Info: REMOVING COM VELOCITY 0.226593 -0.080506 -0.0166092
TCL: Running for 100000 steps
ETITLE: TS BOND ANGLE DIHED IMPRP ELECT VDW BOUNDARY MISC KINETIC TOTAL TEMP POTENTIAL TOTAL3 TEMPAVG PRESSURE GPRESSURE VOLUME PRESSAVG GPRESSAVG
ENERGY: 0 0.0000 0.0000 0.0000 0.0000 -13379.8091 2338.7327 0.0000 0.0000 1738.0003 -9303.0761 302.7350 -11041.0763 -9302.7442 302.7350 340.9098 370.6878 43974.5344 340.9098 370.6878
ENERGY: 100000 0.0000 0.0000 0.0000 0.0000 -14055.8864 2482.5759 0.0000 0.0000 174.5108 -11398.7996 30.3973 -11573.3104 -11398.2698 30.9369 372.3750 401.7669 28896.7306 3.0172 3.0483
TCL: Running 100000 steps at 60 kelvin.
TCL: Setting parameter langevinTemp to 60
TCL: Running for 100000 steps
ETITLE: TS BOND ANGLE DIHED IMPRP ELECT VDW BOUNDARY MISC KINETIC TOTAL TEMP POTENTIAL TOTAL3 TEMPAVG PRESSURE GPRESSURE VOLUME PRESSAVG GPRESSAVG
ENERGY: 100000 0.0000 0.0000 0.0000 0.0000 -14055.8864 2482.5759 0.0000 0.0000 174.4265 -11398.8839 30.3826 -11573.3104 -11398.4493 30.3826 364.3090 401.7946 28896.7306 364.3090 401.7946
ENERGY: 200000 0.0000 0.0000 0.0000 0.0000 -13789.8486 2313.9389 0.0000 0.0000 334.7152 -11141.1946 58.3026 -11475.9098 -11140.3931 59.8760 -652.6927 -614.5491 28911.5632 2.0080 2.0217
TCL: Running 100000 steps at 90 kelvin.
TCL: Setting parameter langevinTemp to 90
TCL: Running for 100000 steps
ETITLE: TS BOND ANGLE DIHED IMPRP ELECT VDW BOUNDARY MISC KINETIC TOTAL TEMP POTENTIAL TOTAL3 TEMPAVG PRESSURE GPRESSURE VOLUME PRESSAVG GPRESSAVG
ENERGY: 200000 0.0000 0.0000 0.0000 0.0000 -13789.8486 2313.9389 0.0000 0.0000 334.5374 -11141.3724 58.2717 -11475.9098 -11140.8105 58.2717 -661.7662 -614.4891 28911.5632 -661.7662 -614.4891
ENERGY: 300000 0.0000 0.0000 0.0000 0.0000 -13905.3123 2502.5223 0.0000 0.0000 520.1163 -10882.6737 90.5969 -11402.7900 -10881.5485 89.9503 1362.5766 1423.1971 28551.8770 4.5461 4.4241
TCL: Running 100000 steps at 120 kelvin.
TCL: Setting parameter langevinTemp to 120
TCL: Running for 100000 steps
ETITLE: TS BOND ANGLE DIHED IMPRP ELECT VDW BOUNDARY MISC KINETIC TOTAL TEMP POTENTIAL TOTAL3 TEMPAVG PRESSURE GPRESSURE VOLUME PRESSAVG GPRESSAVG
ENERGY: 300000 0.0000 0.0000 0.0000 0.0000 -13905.3123 2502.5223 0.0000 0.0000 519.8501 -10882.9399 90.5505 -11402.7900 -10881.8844 90.5505 1365.0466 1423.2025 28551.8770 1365.0466 1423.2025
ENERGY: 400000 0.0000 0.0000 0.0000 0.0000 -13472.4557 2216.7575 0.0000 0.0000 686.0542 -10569.6440 119.5009 -11255.6982 -10567.6229 119.8626 -737.8171 -670.0487 29061.9622 4.1624 4.0540
TCL: Running 100000 steps at 150 kelvin.
TCL: Setting parameter langevinTemp to 150
TCL: Running for 100000 steps
ETITLE: TS BOND ANGLE DIHED IMPRP ELECT VDW BOUNDARY MISC KINETIC TOTAL TEMP POTENTIAL TOTAL3 TEMPAVG PRESSURE GPRESSURE VOLUME PRESSAVG GPRESSAVG
ENERGY: 400000 0.0000 0.0000 0.0000 0.0000 -13472.4557 2216.7575 0.0000 0.0000 685.7099 -10569.9883 119.4410 -11255.6982 -10568.5836 119.4410 -717.6100 -669.7667 29061.9622 -717.6100 -669.7667
ENERGY: 500000 0.0000 0.0000 0.0000 0.0000 -13296.5406 2200.4376 0.0000 0.0000 853.1386 -10242.9644 148.6047 -11096.1030 -10241.3497 149.8517 -125.6197 -132.5436 28938.8594 3.9432 3.9929
TCL: Running 100000 steps at 180 kelvin.
TCL: Setting parameter langevinTemp to 180
TCL: Running for 100000 steps
ETITLE: TS BOND ANGLE DIHED IMPRP ELECT VDW BOUNDARY MISC KINETIC TOTAL TEMP POTENTIAL TOTAL3 TEMPAVG PRESSURE GPRESSURE VOLUME PRESSAVG GPRESSAVG
ENERGY: 500000 0.0000 0.0000 0.0000 0.0000 -13296.5406 2200.4376 0.0000 0.0000 852.7329 -10243.3701 148.5340 -11096.1030 -10241.5666 148.5340 -174.8969 -133.0643 28938.8594 -174.8969 -133.0643
ENERGY: 600000 0.0000 0.0000 0.0000 0.0000 -12816.9284 2009.4570 0.0000 0.0000 1024.2443 -9783.2271 178.4088 -10807.4713 -9781.0174 180.1686 -484.4130 -430.3529 28749.4870 4.2671 4.4142
TCL: Running 100000 steps at 210 kelvin.
TCL: Setting parameter langevinTemp to 210
TCL: Running for 100000 steps
ETITLE: TS BOND ANGLE DIHED IMPRP ELECT VDW BOUNDARY MISC KINETIC TOTAL TEMP POTENTIAL TOTAL3 TEMPAVG PRESSURE GPRESSURE VOLUME PRESSAVG GPRESSAVG
ENERGY: 600000 0.0000 0.0000 0.0000 0.0000 -12816.9284 2009.4570 0.0000 0.0000 1023.7287 -9783.7426 178.3190 -10807.4713 -9781.6225 178.3190 -484.4345 -429.9164 28749.4870 -484.4345 -429.9164
ENERGY: 700000 0.0000 0.0000 0.0000 0.0000 -12248.9937 1854.3342 0.0000 0.0000 1193.9459 -9200.7136 207.9685 -10394.6596 -9196.6908 209.6740 -153.1405 -31.6330 28559.4471 2.8448 2.7440
TCL: Running 100000 steps at 240 kelvin.
TCL: Setting parameter langevinTemp to 240
TCL: Running for 100000 steps
ETITLE: TS BOND ANGLE DIHED IMPRP ELECT VDW BOUNDARY MISC KINETIC TOTAL TEMP POTENTIAL TOTAL3 TEMPAVG PRESSURE GPRESSURE VOLUME PRESSAVG GPRESSAVG
ENERGY: 700000 0.0000 0.0000 0.0000 0.0000 -12248.9937 1854.3342 0.0000 0.0000 1193.3601 -9201.2995 207.8664 -10394.6596 -9199.7471 207.8664 -123.4764 -29.3718 28559.4471 -123.4764 -29.3718
ENERGY: 800000 0.0000 0.0000 0.0000 0.0000 -11532.0542 1619.0951 0.0000 0.0000 1378.6316 -8534.3275 240.1381 -9912.9591 -8531.4338 239.9542 -264.1445 -209.0100 28844.1679 3.8373 3.7285
TCL: Running 100000 steps at 270 kelvin.
TCL: Setting parameter langevinTemp to 270
TCL: Running for 100000 steps
ETITLE: TS BOND ANGLE DIHED IMPRP ELECT VDW BOUNDARY MISC KINETIC TOTAL TEMP POTENTIAL TOTAL3 TEMPAVG PRESSURE GPRESSURE VOLUME PRESSAVG GPRESSAVG
ENERGY: 800000 0.0000 0.0000 0.0000 0.0000 -11532.0542 1619.0951 0.0000 0.0000 1377.9435 -8535.0156 240.0182 -9912.9591 -8532.5560 240.0182 -298.1489 -208.0478 28844.1679 -298.1489 -208.0478
ENERGY: 900000 0.0000 0.0000 0.0000 0.0000 -11077.2296 1556.7133 0.0000 0.0000 1591.5222 -7928.9940 277.2206 -9520.5163 -7925.7144 269.7517 215.5602 309.3474 29362.4435 3.4232 3.4231
TCL: Running 1000000 steps at 300 kelvin.
TCL: Setting parameter langevinTemp to 300
TCL: Running for 1000000 steps
ETITLE: TS BOND ANGLE DIHED IMPRP ELECT VDW BOUNDARY MISC KINETIC TOTAL TEMP POTENTIAL TOTAL3 TEMPAVG PRESSURE GPRESSURE VOLUME PRESSAVG GPRESSAVG
ENERGY: 900000 0.0000 0.0000 0.0000 0.0000 -11077.2296 1556.7133 0.0000 0.0000 1590.7656 -7929.7507 277.0888 -9520.5163 -7927.9739 277.0888 221.0402 307.5609 29362.4435 221.0402 307.5609
ENERGY: 1100000 0.0000 0.0000 0.0000 0.0000 -10598.0438 1465.9730 0.0000 0.0000 1756.8876 -7375.1831 306.0249 -9132.0707 -7371.3066 299.7685 447.9450 528.2955 30209.7804 2.8208 2.8611
ENERGY: 1300000 0.0000 0.0000 0.0000 0.0000 -10443.9325 1397.9092 0.0000 0.0000 1705.6227 -7340.4007 297.0953 -9046.0234 -7336.3108 300.4360 41.0025 161.8913 30237.9854 4.0076 3.9567
ENERGY: 1500000 0.0000 0.0000 0.0000 0.0000 -10389.9758 1359.3059 0.0000 0.0000 1746.2919 -7284.3780 304.1793 -9030.6699 -7279.9251 300.3073 -84.3049 17.7228 30155.0995 2.4759 2.5603
ENERGY: 1700000 0.0000 0.0000 0.0000 0.0000 -10415.3050 1329.7506 0.0000 0.0000 1724.2118 -7361.3426 300.3333 -9085.5544 -7359.2740 300.4290 -614.8608 -538.4400 30374.8952 3.4430 3.3483
ENERGY: 1900000 0.0000 0.0000 0.0000 0.0000 -10495.1623 1401.5167 0.0000 0.0000 1699.8149 -7393.8307 296.0837 -9093.6456 -7392.6216 300.4508 165.1312 191.0832 30054.2373 5.4156 5.3157
TCL: Exiting due to exit command.
