Info: SIMULATION PARAMETERS:
Info: TIMESTEP               2
Info: NUMBER OF STEPS        0
Info: STEPS PER CYCLE        10
Info: PERIODIC CELL BASIS 1  39.456 0 0
Info: PERIODIC CELL BASIS 2  0 34.26 0
Info: PERIODIC CELL BASIS 3  0 0 31.855
Info: PERIODIC CELL CENTER   0 0 0
Info: WRAPPING WATERS AROUND PERIODIC BOUNDARIES ON OUTPUT.
Info: WRAPPING ALL CLUSTERS AROUND PERIODIC BOUNDARIES ON OUTPUT.
Info: FIRST LDB TIMESTEP     50
Info: LAST LDB TIMESTEP     -1
Info: HOM BACKGROUND SCALING 1
Info: PME BACKGROUND SCALING 1
Info: MIN ATOMS PER PATCH    40
Info: EMPTY PATCH LOAD       40 ATOMS
Info: INITIAL TEMPERATURE    300
Info: CENTER OF MASS MOVING INITIALLY? NO
Info: DIELECTRIC             1
Info: EXCLUDE                SCALED ONE-FOUR
Info: 1-4 ELECTROSTATICS SCALED BY 0.833333
Info: MODIFIED 1-4 VDW PARAMETERS WILL BE USED
Info: DCD FILENAME           mobley_2523689_equil.dcd
Info: DCD FREQUENCY          100000
Info: DCD FIRST STEP         100000
Info: DCD FILE WILL CONTAIN UNIT CELL DATA
Info: XST FILENAME           mobley_2523689_equil.xst
Info: XST FREQUENCY          100000
Info: NO VELOCITY DCD OUTPUT
Info: NO FORCE DCD OUTPUT
Info: OUTPUT FILENAME        mobley_2523689_equil
Info: BINARY OUTPUT FILES WILL BE USED
Info: RESTART FILENAME       mobley_2523689_equil.restart
Info: RESTART FREQUENCY      100000
Info: BINARY RESTART FILES WILL BE USED
Info: CUTOFF                 9
Info: PAIRLIST DISTANCE      11
Info: PAIRLIST SHRINK RATE   0.01
Info: PAIRLIST GROW RATE     0.01
Info: PAIRLIST TRIGGER       0.3
Info: PAIRLISTS PER CYCLE    2
Info: PAIRLISTS ENABLED
Info: MARGIN                 8
Info: HYDROGEN GROUP CUTOFF  2.5
Info: PATCH DIMENSION        21.5
Info: ENERGY OUTPUT STEPS    100000
Info: ENERGY EVALUATION STEPS    100000
Info: OUTPUT ENERGY PRECISION 4
Info: CROSSTERM ENERGY INCLUDED IN DIHEDRAL
Info: TIMING OUTPUT STEPS    1000000
Info: PRESSURE OUTPUT STEPS  100000
Info: FIXED ATOMS ACTIVE
Info: LANGEVIN DYNAMICS ACTIVE
Info: LANGEVIN TEMPERATURE   30
Info: LANGEVIN USING BBK INTEGRATOR
Info: LANGEVIN DAMPING COEFFICIENT IS 1 INVERSE PS
Info: LANGEVIN DYNAMICS APPLIED TO HYDROGENS
Info: LANGEVIN PISTON PRESSURE CONTROL ACTIVE
Info:        TARGET PRESSURE IS 1.01325 BAR
Info:     OSCILLATION PERIOD IS 50 FS
Info:             DECAY TIME IS 25 FS
Info:     PISTON TEMPERATURE IS 300 K
Info:       PRESSURE CONTROL IS GROUP-BASED
Info:    INITIAL STRAIN RATE IS 0 0 0
Info:       CELL FLUCTUATION IS ISOTROPIC
Info: PARTICLE MESH EWALD (PME) ACTIVE
Info: PME TOLERANCE               1e-06
Info: PME EWALD COEFFICIENT       0.348832
Info: PME INTERPOLATION ORDER     4
Info: PME GRID DIMENSIONS         40 36 32
Info: PME MAXIMUM GRID SPACING    1
Info: FULL ELECTROSTATIC EVALUATION FREQUENCY      2
Info: USING VERLET I (r-RESPA) MTS SCHEME.
Info: C1 SPLITTING OF LONG RANGE ELECTROSTATICS
Info: PLACING ATOMS IN PATCHES BY HYDROGEN GROUPS
Info: RIGID BONDS TO HYDROGEN : ALL
Info:         ERROR TOLERANCE : 1e-08
Info:          MAX ITERATIONS : 100
Info: RIGID WATER USING SETTLE ALGORITHM
Info: RANDOM NUMBER SEED     1744762536
Info: USE HYDROGEN BONDS?    NO
Info: Using AMBER format force field!
Info: AMBER PARM FILE        mobley_2523689.prmtop
Info: COORDINATE PDB         mobley_2523689.pdb
Info: Exclusions will be read from PARM file!
Info: SCNB (VDW SCALING)     2
Info: USING ARITHMETIC MEAN TO COMBINE L-J SIGMA PARAMETERS
Info: BINARY COORDINATES     mobley_2523689_min.coor
Info: SUMMARY OF PARAMETERS:
Info: 16 BONDS
Info: 21 ANGLES
Info:   21 HARMONIC
Info:   0 COSINE-BASED
Info: 10 DIHEDRAL
Info: 0 IMPROPER
Info: 0 CROSSTERM
Info: 0 VDW
Info: 45 VDW_PAIRS
Info: 0 NBTHOLE_PAIRS
Info: STRUCTURE SUMMARY:
Info: 2912 ATOMS
Info: 2913 BONDS
Info: 37 ANGLES
Info: 64 DIHEDRALS
Info: 0 IMPROPERS
Info: 0 CROSSTERMS
Info: 2996 EXCLUSIONS
Info: 23 FIXED ATOMS
Info: 2897 RIGID BONDS
Info: 8 RIGID BONDS BETWEEN FIXED ATOMS
Info: 5778 DEGREES OF FREEDOM
Info: 978 HYDROGEN GROUPS
Info: 3 ATOMS IN LARGEST HYDROGEN GROUP
Info: 978 MIGRATION GROUPS
Info: 3 ATOMS IN LARGEST MIGRATION GROUP
Info: 15 HYDROGEN GROUPS WITH ALL ATOMS FIXED
Info: TOTAL MASS = 17571.1 amu
Info: TOTAL CHARGE = -9.99644e-05 e
Info: MASS DENSITY = 0.677609 g/cm^3
Info: ATOM DENSITY = 0.0676259 atoms/A^3
Info: ADDED 0 IMPLICIT EXCLUSIONS
Info: NONBONDED TABLE R-SQUARED SPACING: 0.0625
Info: NONBONDED TABLE SIZE: 705 POINTS
Info: REMOVING COM VELOCITY 0.207006 -0.0232614 -0.0307677
TCL: Running for 100000 steps
ETITLE: TS BOND ANGLE DIHED IMPRP ELECT VDW BOUNDARY MISC KINETIC TOTAL TEMP POTENTIAL TOTAL3 TEMPAVG PRESSURE GPRESSURE VOLUME PRESSAVG GPRESSAVG
ENERGY: 0 0.0000 0.0000 0.0000 0.0000 -13580.2278 2333.2169 0.0000 0.0000 1782.2909 -9464.7200 310.4498 -11247.0109 -9464.4013 310.4498 265.7173 299.1921 43060.3963 265.7173 299.1921
ENERGY: 100000 0.0000 0.0000 0.0000 0.0000 -14007.2910 2362.5156 0.0000 0.0000 172.4952 -11472.2802 30.0462 -11644.7754 -11471.9054 30.8946 -329.6935 -287.4122 29049.2184 4.0566 4.0057
TCL: Running 100000 steps at 60 kelvin.
TCL: Setting parameter langevinTemp to 60
TCL: Running for 100000 steps
ETITLE: TS BOND ANGLE DIHED IMPRP ELECT VDW BOUNDARY MISC KINETIC TOTAL TEMP POTENTIAL TOTAL3 TEMPAVG PRESSURE GPRESSURE VOLUME PRESSAVG GPRESSAVG
ENERGY: 100000 0.0000 0.0000 0.0000 0.0000 -14007.2910 2362.5156 0.0000 0.0000 172.4075 -11472.3679 30.0309 -11644.7754 -11471.9486 30.0309 -344.1551 -287.6517 29049.2184 -344.1551 -287.6517
ENERGY: 200000 0.0000 0.0000 0.0000 0.0000 -13827.0458 2205.1885 0.0000 0.0000 339.5323 -11282.3251 59.1417 -11621.8574 -11281.3367 59.9309 -1432.7756 -1388.7195 28814.4237 4.7248 4.7222
TCL: Running 100000 steps at 90 kelvin.
TCL: Setting parameter langevinTemp to 90
TCL: Running for 100000 steps
ETITLE: TS BOND ANGLE DIHED IMPRP ELECT VDW BOUNDARY MISC KINETIC TOTAL TEMP POTENTIAL TOTAL3 TEMPAVG PRESSURE GPRESSURE VOLUME PRESSAVG GPRESSAVG
ENERGY: 200000 0.0000 0.0000 0.0000 0.0000 -13827.0458 2205.1885 0.0000 0.0000 339.3577 -11282.4996 59.1113 -11621.8574 -11281.6565 59.1113 -1453.5421 -1388.5571 28814.4237 -1453.5421 -1388.5571
ENERGY: 300000 0.0000 0.0000 0.0000 0.0000 -13826.6758 2306.2627 0.0000 0.0000 509.8842 -11010.5290 88.8146 -11520.4131 -11009.1043 90.1418 -367.6371 -314.3089 28961.0994 3.5240 3.5068
TCL: Running 100000 steps at 120 kelvin.
TCL: Setting parameter langevinTemp to 120
TCL: Running for 100000 steps
ETITLE: TS BOND ANGLE DIHED IMPRP ELECT VDW BOUNDARY MISC KINETIC TOTAL TEMP POTENTIAL TOTAL3 TEMPAVG PRESSURE GPRESSURE VOLUME PRESSAVG GPRESSAVG
ENERGY: 300000 0.0000 0.0000 0.0000 0.0000 -13826.6758 2306.2627 0.0000 0.0000 509.6128 -11010.8004 88.7673 -11520.4131 -11009.9030 88.7673 -353.8682 -313.9768 28961.0994 -353.8682 -313.9768
ENERGY: 400000 0.0000 0.0000 0.0000 0.0000 -13698.1544 2289.1092 0.0000 0.0000 683.5724 -10725.4728 119.0686 -11409.0452 -10722.9222 120.0713 151.4177 232.7720 28570.9643 2.1378 2.0394
TCL: Running 100000 steps at 150 kelvin.
TCL: Setting parameter langevinTemp to 150
TCL: Running for 100000 steps
ETITLE: TS BOND ANGLE DIHED IMPRP ELECT VDW BOUNDARY MISC KINETIC TOTAL TEMP POTENTIAL TOTAL3 TEMPAVG PRESSURE GPRESSURE VOLUME PRESSAVG GPRESSAVG
ENERGY: 400000 0.0000 0.0000 0.0000 0.0000 -13698.1544 2289.1092 0.0000 0.0000 683.2275 -10725.8177 119.0086 -11409.0452 -10724.5420 119.0086 175.1045 234.2875 28570.9643 175.1045 234.2875
ENERGY: 500000 0.0000 0.0000 0.0000 0.0000 -13440.2129 2172.0619 0.0000 0.0000 855.0700 -10413.0810 148.9411 -11268.1510 -10409.4942 149.7600 -351.7813 -303.4932 28682.2481 3.1221 3.1480
TCL: Running 100000 steps at 180 kelvin.
TCL: Setting parameter langevinTemp to 180
TCL: Running for 100000 steps
ETITLE: TS BOND ANGLE DIHED IMPRP ELECT VDW BOUNDARY MISC KINETIC TOTAL TEMP POTENTIAL TOTAL3 TEMPAVG PRESSURE GPRESSURE VOLUME PRESSAVG GPRESSAVG
ENERGY: 500000 0.0000 0.0000 0.0000 0.0000 -13440.2129 2172.0619 0.0000 0.0000 854.6402 -10413.5108 148.8662 -11268.1510 -10411.6444 148.8662 -350.3264 -303.0421 28682.2481 -350.3264 -303.0421
ENERGY: 600000 0.0000 0.0000 0.0000 0.0000 -13087.1660 2113.4897 0.0000 0.0000 1048.5478 -9925.1284 182.6422 -10973.6763 -9922.2776 180.0564 314.1031 298.4931 28569.0921 3.1206 3.0817
TCL: Running 100000 steps at 210 kelvin.
TCL: Setting parameter langevinTemp to 210
TCL: Running for 100000 steps
ETITLE: TS BOND ANGLE DIHED IMPRP ELECT VDW BOUNDARY MISC KINETIC TOTAL TEMP POTENTIAL TOTAL3 TEMPAVG PRESSURE GPRESSURE VOLUME PRESSAVG GPRESSAVG
ENERGY: 600000 0.0000 0.0000 0.0000 0.0000 -13087.1660 2113.4897 0.0000 0.0000 1048.0163 -9925.6600 182.5496 -10973.6763 -9923.7542 182.5496 255.0200 299.6329 28569.0921 255.0200 299.6329
ENERGY: 700000 0.0000 0.0000 0.0000 0.0000 -12293.0925 1747.2482 0.0000 0.0000 1179.2742 -9366.5700 205.4129 -10545.8443 -9363.6547 209.6496 -1131.3520 -1022.1122 28633.8907 3.9029 3.9779
TCL: Running 100000 steps at 240 kelvin.
TCL: Setting parameter langevinTemp to 240
TCL: Running for 100000 steps
ETITLE: TS BOND ANGLE DIHED IMPRP ELECT VDW BOUNDARY MISC KINETIC TOTAL TEMP POTENTIAL TOTAL3 TEMPAVG PRESSURE GPRESSURE VOLUME PRESSAVG GPRESSAVG
ENERGY: 700000 0.0000 0.0000 0.0000 0.0000 -12293.0925 1747.2482 0.0000 0.0000 1178.6740 -9367.1702 205.3083 -10545.8442 -9364.7756 205.3083 -1105.3322 -1022.4948 28633.8907 -1105.3322 -1022.4948
ENERGY: 800000 0.0000 0.0000 0.0000 0.0000 -11655.3237 1624.8598 0.0000 0.0000 1360.9481 -8669.5159 237.0579 -10030.4639 -8665.3783 240.1349 -397.0484 -324.0512 28931.4328 2.3194 2.2605
TCL: Running 100000 steps at 270 kelvin.
TCL: Setting parameter langevinTemp to 270
TCL: Running for 100000 steps
ETITLE: TS BOND ANGLE DIHED IMPRP ELECT VDW BOUNDARY MISC KINETIC TOTAL TEMP POTENTIAL TOTAL3 TEMPAVG PRESSURE GPRESSURE VOLUME PRESSAVG GPRESSAVG
ENERGY: 800000 0.0000 0.0000 0.0000 0.0000 -11655.3237 1624.8598 0.0000 0.0000 1360.2411 -8670.2228 236.9347 -10030.4639 -8668.0751 236.9347 -417.3865 -321.5399 28931.4328 -417.3865 -321.5399
ENERGY: 900000 0.0000 0.0000 0.0000 0.0000 -11162.7454 1561.0070 0.0000 0.0000 1526.1912 -8075.5472 265.8409 -9601.7385 -8072.8093 269.3056 355.1911 472.4443 29363.8862 3.8099 4.0211
TCL: Running 1000000 steps at 300 kelvin.
TCL: Setting parameter langevinTemp to 300
TCL: Running for 1000000 steps
ETITLE: TS BOND ANGLE DIHED IMPRP ELECT VDW BOUNDARY MISC KINETIC TOTAL TEMP POTENTIAL TOTAL3 TEMPAVG PRESSURE GPRESSURE VOLUME PRESSAVG GPRESSAVG
ENERGY: 900000 0.0000 0.0000 0.0000 0.0000 -11162.7454 1561.0070 0.0000 0.0000 1525.3848 -8076.3537 265.7004 -9601.7385 -8074.4533 265.7004 395.8911 473.5438 29363.8862 395.8911 473.5438
ENERGY: 1100000 0.0000 0.0000 0.0000 0.0000 -10876.2006 1516.7134 0.0000 0.0000 1737.8358 -7621.6514 302.7064 -9359.4871 -7618.8832 299.8252 740.3685 778.5181 29831.3495 3.5645 3.6243
ENERGY: 1300000 0.0000 0.0000 0.0000 0.0000 -10571.0205 1338.9644 0.0000 0.0000 1669.2165 -7562.8397 290.7539 -9232.0562 -7558.9306 299.4749 -576.5201 -454.2962 30207.6564 4.0608 4.0000
ENERGY: 1500000 0.0000 0.0000 0.0000 0.0000 -10814.0348 1521.4276 0.0000 0.0000 1752.3030 -7540.3043 305.2264 -9292.6073 -7538.0682 300.1168 1292.7753 1320.9387 29456.0599 2.6353 2.7688
ENERGY: 1700000 0.0000 0.0000 0.0000 0.0000 -10618.4972 1314.4649 0.0000 0.0000 1803.4428 -7500.5895 314.1342 -9304.0323 -7496.8461 299.6436 -953.5324 -847.5479 30504.4722 2.6553 2.6441
ENERGY: 1900000 0.0000 0.0000 0.0000 0.0000 -10605.7120 1314.6792 0.0000 0.0000 1760.5350 -7530.4978 306.6603 -9291.0328 -7527.4784 300.7838 -936.5147 -848.0991 30343.6021 3.1781 3.1831
TCL: Exiting due to exit command.
