Info: SIMULATION PARAMETERS:
Info: TIMESTEP               2
Info: NUMBER OF STEPS        0
Info: STEPS PER CYCLE        10
Info: PERIODIC CELL BASIS 1  39.806 0 0
Info: PERIODIC CELL BASIS 2  0 33.404 0
Info: PERIODIC CELL BASIS 3  0 0 33.876
Info: PERIODIC CELL CENTER   0 0 0
Info: WRAPPING WATERS AROUND PERIODIC BOUNDARIES ON OUTPUT.
Info: WRAPPING ALL CLUSTERS AROUND PERIODIC BOUNDARIES ON OUTPUT.
Info: FIRST LDB TIMESTEP     50
Info: LAST LDB TIMESTEP     -1
Info: HOM BACKGROUND SCALING 1
Info: PME BACKGROUND SCALING 1
Info: MIN ATOMS PER PATCH    40
Info: EMPTY PATCH LOAD       40 ATOMS
Info: INITIAL TEMPERATURE    300
Info: CENTER OF MASS MOVING INITIALLY? NO
Info: DIELECTRIC             1
Info: EXCLUDE                SCALED ONE-FOUR
Info: 1-4 ELECTROSTATICS SCALED BY 0.833333
Info: MODIFIED 1-4 VDW PARAMETERS WILL BE USED
Info: DCD FILENAME           mobley_8208692_equil.dcd
Info: DCD FREQUENCY          100000
Info: DCD FIRST STEP         100000
Info: DCD FILE WILL CONTAIN UNIT CELL DATA
Info: XST FILENAME           mobley_8208692_equil.xst
Info: XST FREQUENCY          100000
Info: NO VELOCITY DCD OUTPUT
Info: NO FORCE DCD OUTPUT
Info: OUTPUT FILENAME        mobley_8208692_equil
Info: BINARY OUTPUT FILES WILL BE USED
Info: RESTART FILENAME       mobley_8208692_equil.restart
Info: RESTART FREQUENCY      100000
Info: BINARY RESTART FILES WILL BE USED
Info: CUTOFF                 9
Info: PAIRLIST DISTANCE      11
Info: PAIRLIST SHRINK RATE   0.01
Info: PAIRLIST GROW RATE     0.01
Info: PAIRLIST TRIGGER       0.3
Info: PAIRLISTS PER CYCLE    2
Info: PAIRLISTS ENABLED
Info: MARGIN                 8
Info: HYDROGEN GROUP CUTOFF  2.5
Info: PATCH DIMENSION        21.5
Info: ENERGY OUTPUT STEPS    100000
Info: ENERGY EVALUATION STEPS    100000
Info: OUTPUT ENERGY PRECISION 4
Info: CROSSTERM ENERGY INCLUDED IN DIHEDRAL
Info: TIMING OUTPUT STEPS    1000000
Info: PRESSURE OUTPUT STEPS  100000
Info: FIXED ATOMS ACTIVE
Info: LANGEVIN DYNAMICS ACTIVE
Info: LANGEVIN TEMPERATURE   30
Info: LANGEVIN USING BBK INTEGRATOR
Info: LANGEVIN DAMPING COEFFICIENT IS 1 INVERSE PS
Info: LANGEVIN DYNAMICS APPLIED TO HYDROGENS
Info: LANGEVIN PISTON PRESSURE CONTROL ACTIVE
Info:        TARGET PRESSURE IS 1.01325 BAR
Info:     OSCILLATION PERIOD IS 50 FS
Info:             DECAY TIME IS 25 FS
Info:     PISTON TEMPERATURE IS 300 K
Info:       PRESSURE CONTROL IS GROUP-BASED
Info:    INITIAL STRAIN RATE IS 0 0 0
Info:       CELL FLUCTUATION IS ISOTROPIC
Info: PARTICLE MESH EWALD (PME) ACTIVE
Info: PME TOLERANCE               1e-06
Info: PME EWALD COEFFICIENT       0.348832
Info: PME INTERPOLATION ORDER     4
Info: PME GRID DIMENSIONS         40 36 36
Info: PME MAXIMUM GRID SPACING    1
Info: FULL ELECTROSTATIC EVALUATION FREQUENCY      2
Info: USING VERLET I (r-RESPA) MTS SCHEME.
Info: C1 SPLITTING OF LONG RANGE ELECTROSTATICS
Info: PLACING ATOMS IN PATCHES BY HYDROGEN GROUPS
Info: RIGID BONDS TO HYDROGEN : ALL
Info:         ERROR TOLERANCE : 1e-08
Info:          MAX ITERATIONS : 100
Info: RIGID WATER USING SETTLE ALGORITHM
Info: RANDOM NUMBER SEED     1744726446
Info: USE HYDROGEN BONDS?    NO
Info: Using AMBER format force field!
Info: AMBER PARM FILE        mobley_8208692.prmtop
Info: COORDINATE PDB         mobley_8208692.pdb
Info: Exclusions will be read from PARM file!
Info: SCNB (VDW SCALING)     2
Info: USING ARITHMETIC MEAN TO COMBINE L-J SIGMA PARAMETERS
Info: BINARY COORDINATES     mobley_8208692_min.coor
Info: SUMMARY OF PARAMETERS:
Info: 7 BONDS
Info: 8 ANGLES
Info:   8 HARMONIC
Info:   0 COSINE-BASED
Info: 3 DIHEDRAL
Info: 0 IMPROPER
Info: 0 CROSSTERM
Info: 0 VDW
Info: 15 VDW_PAIRS
Info: 0 NBTHOLE_PAIRS
Info: STRUCTURE SUMMARY:
Info: 2980 ATOMS
Info: 2981 BONDS
Info: 36 ANGLES
Info: 64 DIHEDRALS
Info: 0 IMPROPERS
Info: 0 CROSSTERMS
Info: 3063 EXCLUSIONS
Info: 22 FIXED ATOMS
Info: 2960 RIGID BONDS
Info: 2 RIGID BONDS BETWEEN FIXED ATOMS
Info: 5916 DEGREES OF FREEDOM
Info: 1006 HYDROGEN GROUPS
Info: 3 ATOMS IN LARGEST HYDROGEN GROUP
Info: 1006 MIGRATION GROUPS
Info: 3 ATOMS IN LARGEST MIGRATION GROUP
Info: 20 HYDROGEN GROUPS WITH ALL ATOMS FIXED
Info: TOTAL MASS = 18193.5 amu
Info: TOTAL CHARGE = 0.000100007 e
Info: MASS DENSITY = 0.670713 g/cm^3
Info: ATOM DENSITY = 0.0661572 atoms/A^3
Info: ADDED 0 IMPLICIT EXCLUSIONS
Info: NONBONDED TABLE R-SQUARED SPACING: 0.0625
Info: NONBONDED TABLE SIZE: 705 POINTS
Info: REMOVING COM VELOCITY -0.0771047 -0.0322998 -0.0905921
TCL: Running for 100000 steps
ETITLE: TS BOND ANGLE DIHED IMPRP ELECT VDW BOUNDARY MISC KINETIC TOTAL TEMP POTENTIAL TOTAL3 TEMPAVG PRESSURE GPRESSURE VOLUME PRESSAVG GPRESSAVG
ENERGY: 0 0.0000 0.0000 0.0000 0.0000 -13834.6310 2474.1165 0.0000 0.0000 1757.0203 -9603.4942 298.9090 -11360.5145 -9603.1184 298.9090 476.0787 505.4259 45044.2269 476.0787 505.4259
ENERGY: 100000 0.0000 0.0000 0.0000 0.0000 -14352.5194 2511.6246 0.0000 0.0000 179.9918 -11660.9029 30.6207 -11840.8947 -11660.5628 30.8813 161.3814 224.6238 29297.8343 4.7032 4.6675
TCL: Running 100000 steps at 60 kelvin.
TCL: Setting parameter langevinTemp to 60
TCL: Running for 100000 steps
ETITLE: TS BOND ANGLE DIHED IMPRP ELECT VDW BOUNDARY MISC KINETIC TOTAL TEMP POTENTIAL TOTAL3 TEMPAVG PRESSURE GPRESSURE VOLUME PRESSAVG GPRESSAVG
ENERGY: 100000 0.0000 0.0000 0.0000 0.0000 -14352.5193 2511.6246 0.0000 0.0000 179.9065 -11660.9882 30.6062 -11840.8947 -11660.6264 30.6062 166.7745 224.4957 29297.8343 166.7745 224.4957
ENERGY: 200000 0.0000 0.0000 0.0000 0.0000 -14154.8080 2438.0613 0.0000 0.0000 352.4927 -11364.2540 59.9670 -11716.7467 -11363.0090 59.9105 114.1910 147.7482 29362.5003 3.8109 3.8105
TCL: Running 100000 steps at 90 kelvin.
TCL: Setting parameter langevinTemp to 90
TCL: Running for 100000 steps
ETITLE: TS BOND ANGLE DIHED IMPRP ELECT VDW BOUNDARY MISC KINETIC TOTAL TEMP POTENTIAL TOTAL3 TEMPAVG PRESSURE GPRESSURE VOLUME PRESSAVG GPRESSAVG
ENERGY: 200000 0.0000 0.0000 0.0000 0.0000 -14154.8080 2438.0613 0.0000 0.0000 352.3138 -11364.4329 59.9366 -11716.7467 -11363.8308 59.9366 109.4751 148.0976 29362.5003 109.4751 148.0976
ENERGY: 300000 0.0000 0.0000 0.0000 0.0000 -14102.6294 2456.3420 0.0000 0.0000 520.2092 -11126.0782 88.4994 -11646.2874 -11125.1339 90.1200 520.0431 571.8846 29144.4627 3.9018 3.9206
TCL: Running 100000 steps at 120 kelvin.
TCL: Setting parameter langevinTemp to 120
TCL: Running for 100000 steps
ETITLE: TS BOND ANGLE DIHED IMPRP ELECT VDW BOUNDARY MISC KINETIC TOTAL TEMP POTENTIAL TOTAL3 TEMPAVG PRESSURE GPRESSURE VOLUME PRESSAVG GPRESSAVG
ENERGY: 300000 0.0000 0.0000 0.0000 0.0000 -14102.6294 2456.3420 0.0000 0.0000 519.9490 -11126.3384 88.4551 -11646.2874 -11125.4137 88.4551 527.0856 571.5116 29144.4627 527.0856 571.5116
ENERGY: 400000 0.0000 0.0000 0.0000 0.0000 -13807.1611 2290.7402 0.0000 0.0000 703.1049 -10813.3160 119.6141 -11516.4209 -10811.6377 119.8803 -601.5019 -525.4892 29647.3295 4.4722 4.4982
TCL: Running 100000 steps at 150 kelvin.
TCL: Setting parameter langevinTemp to 150
TCL: Running for 100000 steps
ETITLE: TS BOND ANGLE DIHED IMPRP ELECT VDW BOUNDARY MISC KINETIC TOTAL TEMP POTENTIAL TOTAL3 TEMPAVG PRESSURE GPRESSURE VOLUME PRESSAVG GPRESSAVG
ENERGY: 400000 0.0000 0.0000 0.0000 0.0000 -13807.1611 2290.7402 0.0000 0.0000 702.7636 -10813.6573 119.5560 -11516.4209 -10811.9660 119.5560 -586.5849 -525.8809 29647.3295 -586.5849 -525.8809
ENERGY: 500000 0.0000 0.0000 0.0000 0.0000 -13586.7593 2202.6532 0.0000 0.0000 904.6843 -10479.4217 153.9073 -11384.1060 -10476.5510 150.1247 -733.8842 -698.0506 29915.2575 5.5286 5.6260
TCL: Running 100000 steps at 180 kelvin.
TCL: Setting parameter langevinTemp to 180
TCL: Running for 100000 steps
ETITLE: TS BOND ANGLE DIHED IMPRP ELECT VDW BOUNDARY MISC KINETIC TOTAL TEMP POTENTIAL TOTAL3 TEMPAVG PRESSURE GPRESSURE VOLUME PRESSAVG GPRESSAVG
ENERGY: 500000 0.0000 0.0000 0.0000 0.0000 -13586.7593 2202.6532 0.0000 0.0000 904.2529 -10479.8531 153.8339 -11384.1060 -10478.0682 153.8339 -750.0078 -697.5875 29915.2575 -750.0078 -697.5875
ENERGY: 600000 0.0000 0.0000 0.0000 0.0000 -13333.6138 2203.6893 0.0000 0.0000 1033.1141 -10096.8104 175.7561 -11129.9245 -10093.7002 179.7261 527.1958 607.4703 29236.8838 5.1518 5.1379
TCL: Running 100000 steps at 210 kelvin.
TCL: Setting parameter langevinTemp to 210
TCL: Running for 100000 steps
ETITLE: TS BOND ANGLE DIHED IMPRP ELECT VDW BOUNDARY MISC KINETIC TOTAL TEMP POTENTIAL TOTAL3 TEMPAVG PRESSURE GPRESSURE VOLUME PRESSAVG GPRESSAVG
ENERGY: 600000 0.0000 0.0000 0.0000 0.0000 -13333.6138 2203.6893 0.0000 0.0000 1032.5758 -10097.3487 175.6646 -11129.9245 -10095.4985 175.6646 540.1201 608.6465 29236.8838 540.1201 608.6465
ENERGY: 700000 0.0000 0.0000 0.0000 0.0000 -12466.9669 1836.7408 0.0000 0.0000 1250.3407 -9379.8853 212.7113 -10630.2261 -9378.2046 210.1901 -637.9293 -560.6048 29540.4262 3.4857 3.5936
TCL: Running 100000 steps at 240 kelvin.
TCL: Setting parameter langevinTemp to 240
TCL: Running for 100000 steps
ETITLE: TS BOND ANGLE DIHED IMPRP ELECT VDW BOUNDARY MISC KINETIC TOTAL TEMP POTENTIAL TOTAL3 TEMPAVG PRESSURE GPRESSURE VOLUME PRESSAVG GPRESSAVG
ENERGY: 700000 0.0000 0.0000 0.0000 0.0000 -12466.9669 1836.7408 0.0000 0.0000 1249.6946 -9380.5315 212.6014 -10630.2261 -9378.3927 212.6014 -647.9888 -561.1371 29540.4262 -647.9888 -561.1371
ENERGY: 800000 0.0000 0.0000 0.0000 0.0000 -11893.6038 1652.9093 0.0000 0.0000 1430.6037 -8810.0908 243.3781 -10240.6945 -8807.4033 239.6891 -747.4128 -706.7105 29748.8184 4.1419 4.2479
TCL: Running 100000 steps at 270 kelvin.
TCL: Setting parameter langevinTemp to 270
TCL: Running for 100000 steps
ETITLE: TS BOND ANGLE DIHED IMPRP ELECT VDW BOUNDARY MISC KINETIC TOTAL TEMP POTENTIAL TOTAL3 TEMPAVG PRESSURE GPRESSURE VOLUME PRESSAVG GPRESSAVG
ENERGY: 800000 0.0000 0.0000 0.0000 0.0000 -11893.6038 1652.9093 0.0000 0.0000 1429.8875 -8810.8070 243.2563 -10240.6945 -8808.0072 243.2563 -777.8109 -707.9928 29748.8184 -777.8109 -707.9928
ENERGY: 900000 0.0000 0.0000 0.0000 0.0000 -11377.1505 1632.2706 0.0000 0.0000 1560.1842 -8184.6956 265.4227 -9744.8799 -8180.9644 270.3724 845.0390 936.0833 29481.1678 1.9507 1.9115
TCL: Running 1000000 steps at 300 kelvin.
TCL: Setting parameter langevinTemp to 300
TCL: Running for 1000000 steps
ETITLE: TS BOND ANGLE DIHED IMPRP ELECT VDW BOUNDARY MISC KINETIC TOTAL TEMP POTENTIAL TOTAL3 TEMPAVG PRESSURE GPRESSURE VOLUME PRESSAVG GPRESSAVG
ENERGY: 900000 0.0000 0.0000 0.0000 0.0000 -11377.1505 1632.2706 0.0000 0.0000 1559.3555 -8185.5244 265.2817 -9744.8799 -8183.9925 265.2817 858.4122 936.3737 29481.1678 858.4122 936.3737
ENERGY: 1100000 0.0000 0.0000 0.0000 0.0000 -10653.2751 1357.6911 0.0000 0.0000 1799.9653 -7495.6187 306.2149 -9295.5840 -7491.7704 299.8990 -533.3686 -479.9710 31066.3714 3.1139 2.9852
ENERGY: 1300000 0.0000 0.0000 0.0000 0.0000 -10717.0472 1429.6745 0.0000 0.0000 1762.3995 -7524.9732 299.8241 -9287.3727 -7521.8276 300.4958 217.0951 303.2341 30795.7965 2.5355 2.4053
ENERGY: 1500000 0.0000 0.0000 0.0000 0.0000 -10721.0770 1384.7807 0.0000 0.0000 1782.0811 -7554.2152 303.1724 -9336.2963 -7550.7712 299.8779 -247.0444 -229.1185 31034.1284 3.8581 3.9739
ENERGY: 1700000 0.0000 0.0000 0.0000 0.0000 -10673.2250 1357.4918 0.0000 0.0000 1752.4946 -7563.2386 298.1391 -9315.7331 -7561.8007 300.6180 -659.2076 -607.0065 31389.6750 1.5368 1.5813
ENERGY: 1900000 0.0000 0.0000 0.0000 0.0000 -10807.9735 1407.6228 0.0000 0.0000 1781.9028 -7618.4479 303.1421 -9400.3507 -7615.6755 300.4828 -267.1039 -186.2131 30657.9493 2.9153 2.8779
TCL: Exiting due to exit command.
