Info: SIMULATION PARAMETERS:
Info: TIMESTEP               2
Info: NUMBER OF STEPS        0
Info: STEPS PER CYCLE        10
Info: PERIODIC CELL BASIS 1  37.133 0 0
Info: PERIODIC CELL BASIS 2  0 34.1 0
Info: PERIODIC CELL BASIS 3  0 0 34.68
Info: PERIODIC CELL CENTER   0 0 0
Info: WRAPPING WATERS AROUND PERIODIC BOUNDARIES ON OUTPUT.
Info: WRAPPING ALL CLUSTERS AROUND PERIODIC BOUNDARIES ON OUTPUT.
Info: FIRST LDB TIMESTEP     50
Info: LAST LDB TIMESTEP     -1
Info: HOM BACKGROUND SCALING 1
Info: PME BACKGROUND SCALING 1
Info: MIN ATOMS PER PATCH    40
Info: EMPTY PATCH LOAD       40 ATOMS
Info: INITIAL TEMPERATURE    300
Info: CENTER OF MASS MOVING INITIALLY? NO
Info: DIELECTRIC             1
Info: EXCLUDE                SCALED ONE-FOUR
Info: 1-4 ELECTROSTATICS SCALED BY 0.833333
Info: MODIFIED 1-4 VDW PARAMETERS WILL BE USED
Info: DCD FILENAME           mobley_252413_equil.dcd
Info: DCD FREQUENCY          100000
Info: DCD FIRST STEP         100000
Info: DCD FILE WILL CONTAIN UNIT CELL DATA
Info: XST FILENAME           mobley_252413_equil.xst
Info: XST FREQUENCY          100000
Info: NO VELOCITY DCD OUTPUT
Info: NO FORCE DCD OUTPUT
Info: OUTPUT FILENAME        mobley_252413_equil
Info: BINARY OUTPUT FILES WILL BE USED
Info: RESTART FILENAME       mobley_252413_equil.restart
Info: RESTART FREQUENCY      100000
Info: BINARY RESTART FILES WILL BE USED
Info: CUTOFF                 9
Info: PAIRLIST DISTANCE      11
Info: PAIRLIST SHRINK RATE   0.01
Info: PAIRLIST GROW RATE     0.01
Info: PAIRLIST TRIGGER       0.3
Info: PAIRLISTS PER CYCLE    2
Info: PAIRLISTS ENABLED
Info: MARGIN                 8
Info: HYDROGEN GROUP CUTOFF  2.5
Info: PATCH DIMENSION        21.5
Info: ENERGY OUTPUT STEPS    100000
Info: ENERGY EVALUATION STEPS    100000
Info: OUTPUT ENERGY PRECISION 4
Info: CROSSTERM ENERGY INCLUDED IN DIHEDRAL
Info: TIMING OUTPUT STEPS    1000000
Info: PRESSURE OUTPUT STEPS  100000
Info: FIXED ATOMS ACTIVE
Info: LANGEVIN DYNAMICS ACTIVE
Info: LANGEVIN TEMPERATURE   30
Info: LANGEVIN USING BBK INTEGRATOR
Info: LANGEVIN DAMPING COEFFICIENT IS 1 INVERSE PS
Info: LANGEVIN DYNAMICS APPLIED TO HYDROGENS
Info: LANGEVIN PISTON PRESSURE CONTROL ACTIVE
Info:        TARGET PRESSURE IS 1.01325 BAR
Info:     OSCILLATION PERIOD IS 50 FS
Info:             DECAY TIME IS 25 FS
Info:     PISTON TEMPERATURE IS 300 K
Info:       PRESSURE CONTROL IS GROUP-BASED
Info:    INITIAL STRAIN RATE IS 0 0 0
Info:       CELL FLUCTUATION IS ISOTROPIC
Info: PARTICLE MESH EWALD (PME) ACTIVE
Info: PME TOLERANCE               1e-06
Info: PME EWALD COEFFICIENT       0.348832
Info: PME INTERPOLATION ORDER     4
Info: PME GRID DIMENSIONS         40 36 36
Info: PME MAXIMUM GRID SPACING    1
Info: FULL ELECTROSTATIC EVALUATION FREQUENCY      2
Info: USING VERLET I (r-RESPA) MTS SCHEME.
Info: C1 SPLITTING OF LONG RANGE ELECTROSTATICS
Info: PLACING ATOMS IN PATCHES BY HYDROGEN GROUPS
Info: RIGID BONDS TO HYDROGEN : ALL
Info:         ERROR TOLERANCE : 1e-08
Info:          MAX ITERATIONS : 100
Info: RIGID WATER USING SETTLE ALGORITHM
Info: RANDOM NUMBER SEED     1744762623
Info: USE HYDROGEN BONDS?    NO
Info: Using AMBER format force field!
Info: AMBER PARM FILE        mobley_252413.prmtop
Info: COORDINATE PDB         mobley_252413.pdb
Info: Exclusions will be read from PARM file!
Info: SCNB (VDW SCALING)     2
Info: USING ARITHMETIC MEAN TO COMBINE L-J SIGMA PARAMETERS
Info: BINARY COORDINATES     mobley_252413_min.coor
Info: SUMMARY OF PARAMETERS:
Info: 4 BONDS
Info: 3 ANGLES
Info:   3 HARMONIC
Info:   0 COSINE-BASED
Info: 5 DIHEDRAL
Info: 0 IMPROPER
Info: 0 CROSSTERM
Info: 0 VDW
Info: 10 VDW_PAIRS
Info: 0 NBTHOLE_PAIRS
Info: STRUCTURE SUMMARY:
Info: 2903 ATOMS
Info: 2902 BONDS
Info: 42 ANGLES
Info: 62 DIHEDRALS
Info: 0 IMPROPERS
Info: 0 CROSSTERMS
Info: 2998 EXCLUSIONS
Info: 23 FIXED ATOMS
Info: 2896 RIGID BONDS
Info: 16 RIGID BONDS BETWEEN FIXED ATOMS
Info: 5760 DEGREES OF FREEDOM
Info: 967 HYDROGEN GROUPS
Info: 4 ATOMS IN LARGEST HYDROGEN GROUP
Info: 967 MIGRATION GROUPS
Info: 4 ATOMS IN LARGEST MIGRATION GROUP
Info: 7 HYDROGEN GROUPS WITH ALL ATOMS FIXED
Info: TOTAL MASS = 17395.6 amu
Info: TOTAL CHARGE = -0.000200018 e
Info: MASS DENSITY = 0.657816 g/cm^3
Info: ATOM DENSITY = 0.0661079 atoms/A^3
Info: ADDED 0 IMPLICIT EXCLUSIONS
Info: NONBONDED TABLE R-SQUARED SPACING: 0.0625
Info: NONBONDED TABLE SIZE: 705 POINTS
Info: REMOVING COM VELOCITY 0.0206611 -0.0243004 0.044554
TCL: Running for 100000 steps
ETITLE: TS BOND ANGLE DIHED IMPRP ELECT VDW BOUNDARY MISC KINETIC TOTAL TEMP POTENTIAL TOTAL3 TEMPAVG PRESSURE GPRESSURE VOLUME PRESSAVG GPRESSAVG
ENERGY: 0 0.0000 0.0000 0.0000 0.0000 -13314.0016 2332.3721 0.0000 0.0000 1640.8563 -9340.7732 286.7071 -10981.6295 -9340.4582 286.7071 249.1225 276.2713 43913.0402 249.1225 276.2713
ENERGY: 100000 0.0000 0.0000 0.0000 0.0000 -13955.2923 2479.7476 0.0000 0.0000 172.3914 -11303.1533 30.1220 -11475.5447 -11302.5917 30.8911 320.8821 380.9217 29501.5257 4.4229 4.4888
TCL: Running 100000 steps at 60 kelvin.
TCL: Setting parameter langevinTemp to 60
TCL: Running for 100000 steps
ETITLE: TS BOND ANGLE DIHED IMPRP ELECT VDW BOUNDARY MISC KINETIC TOTAL TEMP POTENTIAL TOTAL3 TEMPAVG PRESSURE GPRESSURE VOLUME PRESSAVG GPRESSAVG
ENERGY: 100000 0.0000 0.0000 0.0000 0.0000 -13955.2923 2479.7476 0.0000 0.0000 172.3054 -11303.2393 30.1070 -11475.5447 -11302.9297 30.1070 322.6902 381.1203 29501.5257 322.6902 381.1203
ENERGY: 200000 0.0000 0.0000 0.0000 0.0000 -13737.7757 2307.7072 0.0000 0.0000 343.7068 -11086.3617 60.0559 -11430.0685 -11085.7600 60.0882 -675.6649 -610.2010 28688.0755 2.8827 2.8563
TCL: Running 100000 steps at 90 kelvin.
TCL: Setting parameter langevinTemp to 90
TCL: Running for 100000 steps
ETITLE: TS BOND ANGLE DIHED IMPRP ELECT VDW BOUNDARY MISC KINETIC TOTAL TEMP POTENTIAL TOTAL3 TEMPAVG PRESSURE GPRESSURE VOLUME PRESSAVG GPRESSAVG
ENERGY: 200000 0.0000 0.0000 0.0000 0.0000 -13737.7757 2307.7072 0.0000 0.0000 343.5416 -11086.5269 60.0271 -11430.0685 -11085.8839 60.0271 -671.2453 -610.2657 28688.0755 -671.2453 -610.2657
ENERGY: 300000 0.0000 0.0000 0.0000 0.0000 -13841.2995 2509.2649 0.0000 0.0000 527.9843 -10804.0503 92.2548 -11332.0346 -10803.3977 90.0501 1444.8463 1517.1110 28299.4956 4.4514 4.5068
TCL: Running 100000 steps at 120 kelvin.
TCL: Setting parameter langevinTemp to 120
TCL: Running for 100000 steps
ETITLE: TS BOND ANGLE DIHED IMPRP ELECT VDW BOUNDARY MISC KINETIC TOTAL TEMP POTENTIAL TOTAL3 TEMPAVG PRESSURE GPRESSURE VOLUME PRESSAVG GPRESSAVG
ENERGY: 300000 0.0000 0.0000 0.0000 0.0000 -13841.2995 2509.2649 0.0000 0.0000 527.7184 -10804.3162 92.2083 -11332.0346 -10803.4497 92.2083 1463.6861 1516.4610 28299.4956 1463.6861 1516.4610
ENERGY: 400000 0.0000 0.0000 0.0000 0.0000 -13446.9900 2215.7878 0.0000 0.0000 676.6712 -10554.5309 118.2349 -11231.2021 -10553.4464 119.9961 -845.2993 -783.1557 28961.8800 3.8723 3.8841
TCL: Running 100000 steps at 150 kelvin.
TCL: Setting parameter langevinTemp to 150
TCL: Running for 100000 steps
ETITLE: TS BOND ANGLE DIHED IMPRP ELECT VDW BOUNDARY MISC KINETIC TOTAL TEMP POTENTIAL TOTAL3 TEMPAVG PRESSURE GPRESSURE VOLUME PRESSAVG GPRESSAVG
ENERGY: 400000 0.0000 0.0000 0.0000 0.0000 -13446.9900 2215.7878 0.0000 0.0000 676.3298 -10554.8724 118.1752 -11231.2021 -10553.3759 118.1752 -834.6575 -783.6872 28961.8800 -834.6575 -783.6872
ENERGY: 500000 0.0000 0.0000 0.0000 0.0000 -13325.4593 2241.1655 0.0000 0.0000 857.9135 -10226.3802 149.9034 -11084.2938 -10223.5669 150.0809 48.5274 110.1188 28767.9613 5.5224 5.3826
TCL: Running 100000 steps at 180 kelvin.
TCL: Setting parameter langevinTemp to 180
TCL: Running for 100000 steps
ETITLE: TS BOND ANGLE DIHED IMPRP ELECT VDW BOUNDARY MISC KINETIC TOTAL TEMP POTENTIAL TOTAL3 TEMPAVG PRESSURE GPRESSURE VOLUME PRESSAVG GPRESSAVG
ENERGY: 500000 0.0000 0.0000 0.0000 0.0000 -13325.4593 2241.1655 0.0000 0.0000 857.4746 -10226.8192 149.8267 -11084.2938 -10225.2262 149.8267 56.3493 111.4142 28767.9613 56.3493 111.4142
ENERGY: 600000 0.0000 0.0000 0.0000 0.0000 -12860.3046 2075.1817 0.0000 0.0000 1045.1099 -9740.0130 182.6122 -10785.1229 -9738.2043 179.3442 -98.6890 -11.7064 28470.1538 4.9705 4.7548
TCL: Running 100000 steps at 210 kelvin.
TCL: Setting parameter langevinTemp to 210
TCL: Running for 100000 steps
ETITLE: TS BOND ANGLE DIHED IMPRP ELECT VDW BOUNDARY MISC KINETIC TOTAL TEMP POTENTIAL TOTAL3 TEMPAVG PRESSURE GPRESSURE VOLUME PRESSAVG GPRESSAVG
ENERGY: 600000 0.0000 0.0000 0.0000 0.0000 -12860.3046 2075.1817 0.0000 0.0000 1044.5896 -9740.5333 182.5213 -10785.1229 -9739.1342 182.5213 -77.4100 -10.9517 28470.1538 -77.4100 -10.9517
ENERGY: 700000 0.0000 0.0000 0.0000 0.0000 -12150.8901 1859.5359 0.0000 0.0000 1230.5788 -9060.7754 215.0192 -10291.3542 -9057.8102 209.8945 315.8830 374.6755 28070.3551 4.3811 4.3270
TCL: Running 100000 steps at 240 kelvin.
TCL: Setting parameter langevinTemp to 240
TCL: Running for 100000 steps
ETITLE: TS BOND ANGLE DIHED IMPRP ELECT VDW BOUNDARY MISC KINETIC TOTAL TEMP POTENTIAL TOTAL3 TEMPAVG PRESSURE GPRESSURE VOLUME PRESSAVG GPRESSAVG
ENERGY: 700000 0.0000 0.0000 0.0000 0.0000 -12150.8901 1859.5359 0.0000 0.0000 1230.0105 -9061.3437 214.9199 -10291.3542 -9059.1207 214.9199 304.7866 374.4728 28070.3551 304.7866 374.4728
ENERGY: 800000 0.0000 0.0000 0.0000 0.0000 -11509.7709 1637.4375 0.0000 0.0000 1403.7164 -8468.6169 245.2716 -9872.3334 -8464.9291 240.0493 -158.4556 -45.0515 28396.1450 3.6358 3.5412
TCL: Running 100000 steps at 270 kelvin.
TCL: Setting parameter langevinTemp to 270
TCL: Running for 100000 steps
ETITLE: TS BOND ANGLE DIHED IMPRP ELECT VDW BOUNDARY MISC KINETIC TOTAL TEMP POTENTIAL TOTAL3 TEMPAVG PRESSURE GPRESSURE VOLUME PRESSAVG GPRESSAVG
ENERGY: 800000 0.0000 0.0000 0.0000 0.0000 -11509.7709 1637.4375 0.0000 0.0000 1403.0505 -8469.2828 245.1553 -9872.3334 -8467.5163 245.1553 -124.3437 -44.8147 28396.1450 -124.3437 -44.8147
ENERGY: 900000 0.0000 0.0000 0.0000 0.0000 -11173.1740 1629.4718 0.0000 0.0000 1554.3388 -7989.3634 271.5899 -9543.7022 -7985.7513 268.9438 951.3648 1080.8218 28403.6817 2.8698 2.7820
TCL: Running 1000000 steps at 300 kelvin.
TCL: Setting parameter langevinTemp to 300
TCL: Running for 1000000 steps
ETITLE: TS BOND ANGLE DIHED IMPRP ELECT VDW BOUNDARY MISC KINETIC TOTAL TEMP POTENTIAL TOTAL3 TEMPAVG PRESSURE GPRESSURE VOLUME PRESSAVG GPRESSAVG
ENERGY: 900000 0.0000 0.0000 0.0000 0.0000 -11173.1740 1629.4718 0.0000 0.0000 1553.5471 -7990.1551 271.4515 -9543.7022 -7988.2561 271.4515 990.2228 1081.0310 28403.6817 990.2228 1081.0310
ENERGY: 1100000 0.0000 0.0000 0.0000 0.0000 -10465.0870 1363.2328 0.0000 0.0000 1721.1889 -7380.6652 300.7436 -9101.8541 -7378.3423 300.2791 -359.5658 -268.7790 29630.2467 1.3332 1.4740
ENERGY: 1300000 0.0000 0.0000 0.0000 0.0000 -10439.8346 1375.9466 0.0000 0.0000 1710.1267 -7353.7613 298.8107 -9063.8880 -7351.2247 299.6280 -147.0206 -127.4733 29905.9321 4.5349 4.4461
ENERGY: 1500000 0.0000 0.0000 0.0000 0.0000 -10559.7574 1381.3524 0.0000 0.0000 1694.6473 -7483.7577 296.1060 -9178.4050 -7478.1527 299.8365 -280.5019 -190.9732 29401.2462 0.9002 0.9963
ENERGY: 1700000 0.0000 0.0000 0.0000 0.0000 -10433.4587 1367.8098 0.0000 0.0000 1741.9194 -7323.7295 304.3659 -9065.6489 -7319.4042 301.0041 -76.3034 -9.1974 29593.7482 3.7633 3.6263
ENERGY: 1900000 0.0000 0.0000 0.0000 0.0000 -10411.8198 1353.9279 0.0000 0.0000 1705.7380 -7352.1540 298.0439 -9057.8920 -7349.3021 300.0740 -430.2685 -405.9994 30076.7965 1.1629 1.0647
TCL: Exiting due to exit command.
