Info: SIMULATION PARAMETERS:
Info: TIMESTEP               2
Info: NUMBER OF STEPS        0
Info: STEPS PER CYCLE        10
Info: PERIODIC CELL BASIS 1  38.861 0 0
Info: PERIODIC CELL BASIS 2  0 34.696 0
Info: PERIODIC CELL BASIS 3  0 0 31.855
Info: PERIODIC CELL CENTER   0 0 0
Info: WRAPPING WATERS AROUND PERIODIC BOUNDARIES ON OUTPUT.
Info: WRAPPING ALL CLUSTERS AROUND PERIODIC BOUNDARIES ON OUTPUT.
Info: FIRST LDB TIMESTEP     50
Info: LAST LDB TIMESTEP     -1
Info: HOM BACKGROUND SCALING 1
Info: PME BACKGROUND SCALING 1
Info: MIN ATOMS PER PATCH    40
Info: EMPTY PATCH LOAD       40 ATOMS
Info: INITIAL TEMPERATURE    300
Info: CENTER OF MASS MOVING INITIALLY? NO
Info: DIELECTRIC             1
Info: EXCLUDE                SCALED ONE-FOUR
Info: 1-4 ELECTROSTATICS SCALED BY 0.833333
Info: MODIFIED 1-4 VDW PARAMETERS WILL BE USED
Info: DCD FILENAME           mobley_9717937_equil.dcd
Info: DCD FREQUENCY          100000
Info: DCD FIRST STEP         100000
Info: DCD FILE WILL CONTAIN UNIT CELL DATA
Info: XST FILENAME           mobley_9717937_equil.xst
Info: XST FREQUENCY          100000
Info: NO VELOCITY DCD OUTPUT
Info: NO FORCE DCD OUTPUT
Info: OUTPUT FILENAME        mobley_9717937_equil
Info: BINARY OUTPUT FILES WILL BE USED
Info: RESTART FILENAME       mobley_9717937_equil.restart
Info: RESTART FREQUENCY      100000
Info: BINARY RESTART FILES WILL BE USED
Info: CUTOFF                 9
Info: PAIRLIST DISTANCE      11
Info: PAIRLIST SHRINK RATE   0.01
Info: PAIRLIST GROW RATE     0.01
Info: PAIRLIST TRIGGER       0.3
Info: PAIRLISTS PER CYCLE    2
Info: PAIRLISTS ENABLED
Info: MARGIN                 8
Info: HYDROGEN GROUP CUTOFF  2.5
Info: PATCH DIMENSION        21.5
Info: ENERGY OUTPUT STEPS    100000
Info: ENERGY EVALUATION STEPS    100000
Info: OUTPUT ENERGY PRECISION 4
Info: CROSSTERM ENERGY INCLUDED IN DIHEDRAL
Info: TIMING OUTPUT STEPS    1000000
Info: PRESSURE OUTPUT STEPS  100000
Info: FIXED ATOMS ACTIVE
Info: LANGEVIN DYNAMICS ACTIVE
Info: LANGEVIN TEMPERATURE   30
Info: LANGEVIN USING BBK INTEGRATOR
Info: LANGEVIN DAMPING COEFFICIENT IS 1 INVERSE PS
Info: LANGEVIN DYNAMICS APPLIED TO HYDROGENS
Info: LANGEVIN PISTON PRESSURE CONTROL ACTIVE
Info:        TARGET PRESSURE IS 1.01325 BAR
Info:     OSCILLATION PERIOD IS 50 FS
Info:             DECAY TIME IS 25 FS
Info:     PISTON TEMPERATURE IS 300 K
Info:       PRESSURE CONTROL IS GROUP-BASED
Info:    INITIAL STRAIN RATE IS 0 0 0
Info:       CELL FLUCTUATION IS ISOTROPIC
Info: PARTICLE MESH EWALD (PME) ACTIVE
Info: PME TOLERANCE               1e-06
Info: PME EWALD COEFFICIENT       0.348832
Info: PME INTERPOLATION ORDER     4
Info: PME GRID DIMENSIONS         40 36 32
Info: PME MAXIMUM GRID SPACING    1
Info: FULL ELECTROSTATIC EVALUATION FREQUENCY      2
Info: USING VERLET I (r-RESPA) MTS SCHEME.
Info: C1 SPLITTING OF LONG RANGE ELECTROSTATICS
Info: PLACING ATOMS IN PATCHES BY HYDROGEN GROUPS
Info: RIGID BONDS TO HYDROGEN : ALL
Info:         ERROR TOLERANCE : 1e-08
Info:          MAX ITERATIONS : 100
Info: RIGID WATER USING SETTLE ALGORITHM
Info: RANDOM NUMBER SEED     1744726588
Info: USE HYDROGEN BONDS?    NO
Info: Using AMBER format force field!
Info: AMBER PARM FILE        mobley_9717937.prmtop
Info: COORDINATE PDB         mobley_9717937.pdb
Info: Exclusions will be read from PARM file!
Info: SCNB (VDW SCALING)     2
Info: USING ARITHMETIC MEAN TO COMBINE L-J SIGMA PARAMETERS
Info: BINARY COORDINATES     mobley_9717937_min.coor
Info: SUMMARY OF PARAMETERS:
Info: 7 BONDS
Info: 8 ANGLES
Info:   8 HARMONIC
Info:   0 COSINE-BASED
Info: 3 DIHEDRAL
Info: 0 IMPROPER
Info: 0 CROSSTERM
Info: 0 VDW
Info: 15 VDW_PAIRS
Info: 0 NBTHOLE_PAIRS
Info: STRUCTURE SUMMARY:
Info: 2920 ATOMS
Info: 2921 BONDS
Info: 36 ANGLES
Info: 64 DIHEDRALS
Info: 0 IMPROPERS
Info: 0 CROSSTERMS
Info: 3003 EXCLUSIONS
Info: 22 FIXED ATOMS
Info: 2907 RIGID BONDS
Info: 9 RIGID BONDS BETWEEN FIXED ATOMS
Info: 5796 DEGREES OF FREEDOM
Info: 979 HYDROGEN GROUPS
Info: 3 ATOMS IN LARGEST HYDROGEN GROUP
Info: 979 MIGRATION GROUPS
Info: 3 ATOMS IN LARGEST MIGRATION GROUP
Info: 13 HYDROGEN GROUPS WITH ALL ATOMS FIXED
Info: TOTAL MASS = 17592.1 amu
Info: TOTAL CHARGE = 0.000100028 e
Info: MASS DENSITY = 0.680152 g/cm^3
Info: ATOM DENSITY = 0.0679848 atoms/A^3
Info: ADDED 0 IMPLICIT EXCLUSIONS
Info: NONBONDED TABLE R-SQUARED SPACING: 0.0625
Info: NONBONDED TABLE SIZE: 705 POINTS
Info: REMOVING COM VELOCITY -0.101161 0.0230808 0.0911524
TCL: Running for 100000 steps
ETITLE: TS BOND ANGLE DIHED IMPRP ELECT VDW BOUNDARY MISC KINETIC TOTAL TEMP POTENTIAL TOTAL3 TEMPAVG PRESSURE GPRESSURE VOLUME PRESSAVG GPRESSAVG
ENERGY: 0 0.0000 0.0000 0.0000 0.0000 -13490.7459 2317.8914 0.0000 0.0000 1665.8065 -9507.0479 289.2588 -11172.8544 -9506.7608 289.2588 99.8362 133.4344 42950.7736 99.8362 133.4344
ENERGY: 100000 0.0000 0.0000 0.0000 0.0000 -14079.7240 2512.9028 0.0000 0.0000 174.3741 -11392.4471 30.2792 -11566.8212 -11392.2278 30.8110 430.7115 472.2145 29450.9014 3.9331 3.9124
TCL: Running 100000 steps at 60 kelvin.
TCL: Setting parameter langevinTemp to 60
TCL: Running for 100000 steps
ETITLE: TS BOND ANGLE DIHED IMPRP ELECT VDW BOUNDARY MISC KINETIC TOTAL TEMP POTENTIAL TOTAL3 TEMPAVG PRESSURE GPRESSURE VOLUME PRESSAVG GPRESSAVG
ENERGY: 100000 0.0000 0.0000 0.0000 0.0000 -14079.7240 2512.9028 0.0000 0.0000 174.2909 -11392.5303 30.2647 -11566.8212 -11392.1108 30.2647 415.3125 472.0276 29450.9014 415.3125 472.0276
ENERGY: 200000 0.0000 0.0000 0.0000 0.0000 -13891.9489 2390.9353 0.0000 0.0000 358.2653 -11142.7483 62.2109 -11501.0136 -11142.0168 59.8431 -11.1388 58.4591 29026.0656 3.2165 3.3219
TCL: Running 100000 steps at 90 kelvin.
TCL: Setting parameter langevinTemp to 90
TCL: Running for 100000 steps
ETITLE: TS BOND ANGLE DIHED IMPRP ELECT VDW BOUNDARY MISC KINETIC TOTAL TEMP POTENTIAL TOTAL3 TEMPAVG PRESSURE GPRESSURE VOLUME PRESSAVG GPRESSAVG
ENERGY: 200000 0.0000 0.0000 0.0000 0.0000 -13891.9489 2390.9353 0.0000 0.0000 358.0869 -11142.9267 62.1800 -11501.0136 -11142.0795 62.1800 -1.5207 58.6186 29026.0656 -1.5207 58.6186
ENERGY: 300000 0.0000 0.0000 0.0000 0.0000 -13713.9651 2290.1583 0.0000 0.0000 530.6456 -10893.1613 92.1439 -11423.8069 -10891.7024 89.9322 -562.8523 -515.4325 28979.6260 3.6353 3.7173
TCL: Running 100000 steps at 120 kelvin.
TCL: Setting parameter langevinTemp to 120
TCL: Running for 100000 steps
ETITLE: TS BOND ANGLE DIHED IMPRP ELECT VDW BOUNDARY MISC KINETIC TOTAL TEMP POTENTIAL TOTAL3 TEMPAVG PRESSURE GPRESSURE VOLUME PRESSAVG GPRESSAVG
ENERGY: 300000 0.0000 0.0000 0.0000 0.0000 -13713.9651 2290.1583 0.0000 0.0000 530.3941 -10893.4127 92.1002 -11423.8069 -10892.1035 92.1002 -557.4137 -515.7101 28979.6260 -557.4137 -515.7101
ENERGY: 400000 0.0000 0.0000 0.0000 0.0000 -13518.0839 2176.6600 0.0000 0.0000 685.7182 -10655.7057 119.0715 -11341.4239 -10654.3934 119.9890 -1173.1046 -1113.0510 28756.6658 3.3849 3.3877
TCL: Running 100000 steps at 150 kelvin.
TCL: Setting parameter langevinTemp to 150
TCL: Running for 100000 steps
ETITLE: TS BOND ANGLE DIHED IMPRP ELECT VDW BOUNDARY MISC KINETIC TOTAL TEMP POTENTIAL TOTAL3 TEMPAVG PRESSURE GPRESSURE VOLUME PRESSAVG GPRESSAVG
ENERGY: 400000 0.0000 0.0000 0.0000 0.0000 -13518.0839 2176.6600 0.0000 0.0000 685.3819 -10656.0421 119.0131 -11341.4239 -10654.3849 119.0131 -1173.4211 -1113.4014 28756.6658 -1173.4211 -1113.4014
ENERGY: 500000 0.0000 0.0000 0.0000 0.0000 -13427.3124 2245.7946 0.0000 0.0000 900.4968 -10281.0210 156.3667 -11181.5178 -10278.7081 149.9918 -112.9844 -56.3343 28975.5794 3.8459 3.6609
TCL: Running 100000 steps at 180 kelvin.
TCL: Setting parameter langevinTemp to 180
TCL: Running for 100000 steps
ETITLE: TS BOND ANGLE DIHED IMPRP ELECT VDW BOUNDARY MISC KINETIC TOTAL TEMP POTENTIAL TOTAL3 TEMPAVG PRESSURE GPRESSURE VOLUME PRESSAVG GPRESSAVG
ENERGY: 500000 0.0000 0.0000 0.0000 0.0000 -13427.3124 2245.7946 0.0000 0.0000 900.0848 -10281.4331 156.2951 -11181.5178 -10279.7057 156.2951 -103.9283 -55.1170 28975.5794 -103.9283 -55.1170
ENERGY: 600000 0.0000 0.0000 0.0000 0.0000 -12871.1976 2043.4264 0.0000 0.0000 1031.3471 -9796.4241 179.0882 -10827.7712 -9794.4538 180.3481 -183.3512 -109.4579 28542.6446 3.5396 3.3691
TCL: Running 100000 steps at 210 kelvin.
TCL: Setting parameter langevinTemp to 210
TCL: Running for 100000 steps
ETITLE: TS BOND ANGLE DIHED IMPRP ELECT VDW BOUNDARY MISC KINETIC TOTAL TEMP POTENTIAL TOTAL3 TEMPAVG PRESSURE GPRESSURE VOLUME PRESSAVG GPRESSAVG
ENERGY: 600000 0.0000 0.0000 0.0000 0.0000 -12871.1976 2043.4264 0.0000 0.0000 1030.8187 -9796.9525 178.9964 -10827.7712 -9795.4329 178.9964 -175.2957 -110.2688 28542.6446 -175.2957 -110.2688
ENERGY: 700000 0.0000 0.0000 0.0000 0.0000 -12326.2018 1924.9256 0.0000 0.0000 1220.7381 -9180.5381 211.9749 -10401.2762 -9176.3850 209.7873 594.6416 660.4901 28396.7312 3.7928 3.9294
TCL: Running 100000 steps at 240 kelvin.
TCL: Setting parameter langevinTemp to 240
TCL: Running for 100000 steps
ETITLE: TS BOND ANGLE DIHED IMPRP ELECT VDW BOUNDARY MISC KINETIC TOTAL TEMP POTENTIAL TOTAL3 TEMPAVG PRESSURE GPRESSURE VOLUME PRESSAVG GPRESSAVG
ENERGY: 700000 0.0000 0.0000 0.0000 0.0000 -12326.2018 1924.9256 0.0000 0.0000 1220.1437 -9181.1325 211.8717 -10401.2762 -9179.5062 211.8717 595.1198 662.6925 28396.7312 595.1198 662.6925
ENERGY: 800000 0.0000 0.0000 0.0000 0.0000 -11553.2768 1635.4329 0.0000 0.0000 1375.5811 -8542.2628 238.8626 -9917.8439 -8537.7292 239.3562 -523.1916 -426.0044 29213.5497 4.0544 3.8779
TCL: Running 100000 steps at 270 kelvin.
TCL: Setting parameter langevinTemp to 270
TCL: Running for 100000 steps
ETITLE: TS BOND ANGLE DIHED IMPRP ELECT VDW BOUNDARY MISC KINETIC TOTAL TEMP POTENTIAL TOTAL3 TEMPAVG PRESSURE GPRESSURE VOLUME PRESSAVG GPRESSAVG
ENERGY: 800000 0.0000 0.0000 0.0000 0.0000 -11553.2768 1635.4329 0.0000 0.0000 1374.9202 -8542.9237 238.7479 -9917.8439 -8540.6437 238.7479 -502.4930 -424.1396 29213.5497 -502.4930 -424.1396
ENERGY: 900000 0.0000 0.0000 0.0000 0.0000 -11162.5466 1591.0293 0.0000 0.0000 1575.6096 -7995.9077 273.5965 -9571.5173 -7991.8053 269.6341 340.5666 472.1477 29313.5779 4.0697 3.9599
TCL: Running 1000000 steps at 300 kelvin.
TCL: Setting parameter langevinTemp to 300
TCL: Running for 1000000 steps
ETITLE: TS BOND ANGLE DIHED IMPRP ELECT VDW BOUNDARY MISC KINETIC TOTAL TEMP POTENTIAL TOTAL3 TEMPAVG PRESSURE GPRESSURE VOLUME PRESSAVG GPRESSAVG
ENERGY: 900000 0.0000 0.0000 0.0000 0.0000 -11162.5466 1591.0293 0.0000 0.0000 1574.8248 -7996.6925 273.4603 -9571.5173 -7994.6715 273.4603 380.7767 472.2806 29313.5779 380.7767 472.2806
ENERGY: 1100000 0.0000 0.0000 0.0000 0.0000 -10676.2863 1463.2968 0.0000 0.0000 1764.5702 -7448.4193 306.4086 -9212.9895 -7444.4841 300.2052 379.3951 420.9431 29961.3103 4.4520 4.3704
ENERGY: 1300000 0.0000 0.0000 0.0000 0.0000 -10614.7402 1439.3845 0.0000 0.0000 1708.1489 -7467.2068 296.6113 -9175.3557 -7463.8552 300.3228 39.1147 94.7317 30410.2655 3.0297 2.9264
ENERGY: 1500000 0.0000 0.0000 0.0000 0.0000 -10597.0202 1386.1055 0.0000 0.0000 1756.1668 -7454.7479 304.9494 -9210.9147 -7452.6277 300.4082 -261.0193 -139.9640 29983.1588 3.5091 3.5538
ENERGY: 1700000 0.0000 0.0000 0.0000 0.0000 -10564.3424 1405.0274 0.0000 0.0000 1728.8177 -7430.4974 300.2004 -9159.3150 -7426.9630 300.2902 -123.9381 -54.7612 29945.8086 3.6366 3.6236
ENERGY: 1900000 0.0000 0.0000 0.0000 0.0000 -10687.0290 1470.0452 0.0000 0.0000 1741.1953 -7475.7885 302.3497 -9216.9838 -7473.7060 300.5461 223.3332 321.9473 29960.4924 3.6731 3.6719
TCL: Exiting due to exit command.
