Info: SIMULATION PARAMETERS:
Info: TIMESTEP               2
Info: NUMBER OF STEPS        0
Info: STEPS PER CYCLE        10
Info: PERIODIC CELL BASIS 1  39.546 0 0
Info: PERIODIC CELL BASIS 2  0 34.457 0
Info: PERIODIC CELL BASIS 3  0 0 31.349
Info: PERIODIC CELL CENTER   0 0 0
Info: WRAPPING WATERS AROUND PERIODIC BOUNDARIES ON OUTPUT.
Info: WRAPPING ALL CLUSTERS AROUND PERIODIC BOUNDARIES ON OUTPUT.
Info: FIRST LDB TIMESTEP     50
Info: LAST LDB TIMESTEP     -1
Info: HOM BACKGROUND SCALING 1
Info: PME BACKGROUND SCALING 1
Info: MIN ATOMS PER PATCH    40
Info: EMPTY PATCH LOAD       40 ATOMS
Info: INITIAL TEMPERATURE    300
Info: CENTER OF MASS MOVING INITIALLY? NO
Info: DIELECTRIC             1
Info: EXCLUDE                SCALED ONE-FOUR
Info: 1-4 ELECTROSTATICS SCALED BY 0.833333
Info: MODIFIED 1-4 VDW PARAMETERS WILL BE USED
Info: DCD FILENAME           mobley_6861308_equil.dcd
Info: DCD FREQUENCY          100000
Info: DCD FIRST STEP         100000
Info: DCD FILE WILL CONTAIN UNIT CELL DATA
Info: XST FILENAME           mobley_6861308_equil.xst
Info: XST FREQUENCY          100000
Info: NO VELOCITY DCD OUTPUT
Info: NO FORCE DCD OUTPUT
Info: OUTPUT FILENAME        mobley_6861308_equil
Info: BINARY OUTPUT FILES WILL BE USED
Info: RESTART FILENAME       mobley_6861308_equil.restart
Info: RESTART FREQUENCY      100000
Info: BINARY RESTART FILES WILL BE USED
Info: CUTOFF                 9
Info: PAIRLIST DISTANCE      11
Info: PAIRLIST SHRINK RATE   0.01
Info: PAIRLIST GROW RATE     0.01
Info: PAIRLIST TRIGGER       0.3
Info: PAIRLISTS PER CYCLE    2
Info: PAIRLISTS ENABLED
Info: MARGIN                 8
Info: HYDROGEN GROUP CUTOFF  2.5
Info: PATCH DIMENSION        21.5
Info: ENERGY OUTPUT STEPS    100000
Info: ENERGY EVALUATION STEPS    100000
Info: OUTPUT ENERGY PRECISION 4
Info: CROSSTERM ENERGY INCLUDED IN DIHEDRAL
Info: TIMING OUTPUT STEPS    1000000
Info: PRESSURE OUTPUT STEPS  100000
Info: FIXED ATOMS ACTIVE
Info: LANGEVIN DYNAMICS ACTIVE
Info: LANGEVIN TEMPERATURE   30
Info: LANGEVIN USING BBK INTEGRATOR
Info: LANGEVIN DAMPING COEFFICIENT IS 1 INVERSE PS
Info: LANGEVIN DYNAMICS APPLIED TO HYDROGENS
Info: LANGEVIN PISTON PRESSURE CONTROL ACTIVE
Info:        TARGET PRESSURE IS 1.01325 BAR
Info:     OSCILLATION PERIOD IS 50 FS
Info:             DECAY TIME IS 25 FS
Info:     PISTON TEMPERATURE IS 300 K
Info:       PRESSURE CONTROL IS GROUP-BASED
Info:    INITIAL STRAIN RATE IS 0 0 0
Info:       CELL FLUCTUATION IS ISOTROPIC
Info: PARTICLE MESH EWALD (PME) ACTIVE
Info: PME TOLERANCE               1e-06
Info: PME EWALD COEFFICIENT       0.348832
Info: PME INTERPOLATION ORDER     4
Info: PME GRID DIMENSIONS         40 36 32
Info: PME MAXIMUM GRID SPACING    1
Info: FULL ELECTROSTATIC EVALUATION FREQUENCY      2
Info: USING VERLET I (r-RESPA) MTS SCHEME.
Info: C1 SPLITTING OF LONG RANGE ELECTROSTATICS
Info: PLACING ATOMS IN PATCHES BY HYDROGEN GROUPS
Info: RIGID BONDS TO HYDROGEN : ALL
Info:         ERROR TOLERANCE : 1e-08
Info:          MAX ITERATIONS : 100
Info: RIGID WATER USING SETTLE ALGORITHM
Info: RANDOM NUMBER SEED     1744762786
Info: USE HYDROGEN BONDS?    NO
Info: Using AMBER format force field!
Info: AMBER PARM FILE        mobley_6861308.prmtop
Info: COORDINATE PDB         mobley_6861308.pdb
Info: Exclusions will be read from PARM file!
Info: SCNB (VDW SCALING)     2
Info: USING ARITHMETIC MEAN TO COMBINE L-J SIGMA PARAMETERS
Info: BINARY COORDINATES     mobley_6861308_min.coor
Info: SUMMARY OF PARAMETERS:
Info: 10 BONDS
Info: 12 ANGLES
Info:   12 HARMONIC
Info:   0 COSINE-BASED
Info: 7 DIHEDRAL
Info: 0 IMPROPER
Info: 0 CROSSTERM
Info: 0 VDW
Info: 45 VDW_PAIRS
Info: 0 NBTHOLE_PAIRS
Info: STRUCTURE SUMMARY:
Info: 2967 ATOMS
Info: 2967 BONDS
Info: 39 ANGLES
Info: 58 DIHEDRALS
Info: 0 IMPROPERS
Info: 0 CROSSTERMS
Info: 3051 EXCLUSIONS
Info: 24 FIXED ATOMS
Info: 2955 RIGID BONDS
Info: 12 RIGID BONDS BETWEEN FIXED ATOMS
Info: 5886 DEGREES OF FREEDOM
Info: 993 HYDROGEN GROUPS
Info: 4 ATOMS IN LARGEST HYDROGEN GROUP
Info: 993 MIGRATION GROUPS
Info: 4 ATOMS IN LARGEST MIGRATION GROUP
Info: 12 HYDROGEN GROUPS WITH ALL ATOMS FIXED
Info: TOTAL MASS = 17837.9 amu
Info: TOTAL CHARGE = 0.000199981 e
Info: MASS DENSITY = 0.693425 g/cm^3
Info: ATOM DENSITY = 0.0694566 atoms/A^3
Info: ADDED 0 IMPLICIT EXCLUSIONS
Info: NONBONDED TABLE R-SQUARED SPACING: 0.0625
Info: NONBONDED TABLE SIZE: 705 POINTS
Info: REMOVING COM VELOCITY -0.141099 0.0475683 0.0848035
TCL: Running for 100000 steps
ETITLE: TS BOND ANGLE DIHED IMPRP ELECT VDW BOUNDARY MISC KINETIC TOTAL TEMP POTENTIAL TOTAL3 TEMPAVG PRESSURE GPRESSURE VOLUME PRESSAVG GPRESSAVG
ENERGY: 0 0.0000 0.0000 0.0000 0.0000 -13838.6630 2344.9706 0.0000 0.0000 1721.6423 -9772.0501 294.3832 -11493.6924 -9771.7351 294.3832 -41.5138 -5.9872 42717.2923 -41.5138 -5.9872
ENERGY: 100000 0.0000 0.0000 0.0000 0.0000 -14310.0513 2465.2411 0.0000 0.0000 180.3047 -11664.5055 30.8303 -11844.8102 -11664.1092 30.8199 -290.2211 -230.2361 30248.9814 2.7686 2.7678
TCL: Running 100000 steps at 60 kelvin.
TCL: Setting parameter langevinTemp to 60
TCL: Running for 100000 steps
ETITLE: TS BOND ANGLE DIHED IMPRP ELECT VDW BOUNDARY MISC KINETIC TOTAL TEMP POTENTIAL TOTAL3 TEMPAVG PRESSURE GPRESSURE VOLUME PRESSAVG GPRESSAVG
ENERGY: 100000 0.0000 0.0000 0.0000 0.0000 -14310.0513 2465.2411 0.0000 0.0000 180.2198 -11664.5905 30.8157 -11844.8102 -11664.2372 30.8157 -293.0283 -230.2701 30248.9814 -293.0283 -230.2701
ENERGY: 200000 0.0000 0.0000 0.0000 0.0000 -14177.4673 2378.1298 0.0000 0.0000 358.6305 -11440.7070 61.3221 -11799.3374 -11439.8023 59.8754 -525.9479 -452.6151 29450.9963 4.8490 4.8725
TCL: Running 100000 steps at 90 kelvin.
TCL: Setting parameter langevinTemp to 90
TCL: Running for 100000 steps
ETITLE: TS BOND ANGLE DIHED IMPRP ELECT VDW BOUNDARY MISC KINETIC TOTAL TEMP POTENTIAL TOTAL3 TEMPAVG PRESSURE GPRESSURE VOLUME PRESSAVG GPRESSAVG
ENERGY: 200000 0.0000 0.0000 0.0000 0.0000 -14177.4673 2378.1298 0.0000 0.0000 358.4580 -11440.8795 61.2926 -11799.3375 -11440.1254 61.2926 -510.4068 -453.0618 29450.9963 -510.4068 -453.0618
ENERGY: 300000 0.0000 0.0000 0.0000 0.0000 -13983.5866 2293.4676 0.0000 0.0000 546.0704 -11144.0485 93.3725 -11690.1190 -11141.7253 89.9823 -861.1589 -792.7720 29655.8118 5.2371 5.1949
TCL: Running 100000 steps at 120 kelvin.
TCL: Setting parameter langevinTemp to 120
TCL: Running for 100000 steps
ETITLE: TS BOND ANGLE DIHED IMPRP ELECT VDW BOUNDARY MISC KINETIC TOTAL TEMP POTENTIAL TOTAL3 TEMPAVG PRESSURE GPRESSURE VOLUME PRESSAVG GPRESSAVG
ENERGY: 300000 0.0000 0.0000 0.0000 0.0000 -13983.5866 2293.4676 0.0000 0.0000 545.8136 -11144.3054 93.3285 -11690.1190 -11143.1460 93.3285 -855.3339 -791.6820 29655.8118 -855.3339 -791.6820
ENERGY: 400000 0.0000 0.0000 0.0000 0.0000 -13945.1801 2357.4140 0.0000 0.0000 686.3884 -10901.3778 117.3654 -11587.7661 -10899.6423 119.8447 146.2789 178.3167 29181.8006 3.9592 3.7583
TCL: Running 100000 steps at 150 kelvin.
TCL: Setting parameter langevinTemp to 150
TCL: Running for 100000 steps
ETITLE: TS BOND ANGLE DIHED IMPRP ELECT VDW BOUNDARY MISC KINETIC TOTAL TEMP POTENTIAL TOTAL3 TEMPAVG PRESSURE GPRESSURE VOLUME PRESSAVG GPRESSAVG
ENERGY: 400000 0.0000 0.0000 0.0000 0.0000 -13945.1801 2357.4140 0.0000 0.0000 686.0421 -10901.7240 117.3062 -11587.7661 -10900.5288 117.3062 130.4639 178.8152 29181.8006 130.4639 178.8152
ENERGY: 500000 0.0000 0.0000 0.0000 0.0000 -13643.7284 2216.2015 0.0000 0.0000 892.6300 -10534.8969 152.6306 -11427.5270 -10532.1858 150.0020 -456.0450 -376.0950 29454.1500 4.5731 4.3229
TCL: Running 100000 steps at 180 kelvin.
TCL: Setting parameter langevinTemp to 180
TCL: Running for 100000 steps
ETITLE: TS BOND ANGLE DIHED IMPRP ELECT VDW BOUNDARY MISC KINETIC TOTAL TEMP POTENTIAL TOTAL3 TEMPAVG PRESSURE GPRESSURE VOLUME PRESSAVG GPRESSAVG
ENERGY: 500000 0.0000 0.0000 0.0000 0.0000 -13643.7284 2216.2015 0.0000 0.0000 892.1968 -10535.3301 152.5565 -11427.5270 -10533.5337 152.5565 -445.8641 -375.8335 29454.1500 -445.8641 -375.8335
ENERGY: 600000 0.0000 0.0000 0.0000 0.0000 -13311.5141 2178.6986 0.0000 0.0000 1048.4207 -10084.3948 179.2692 -11132.8156 -10081.9132 180.2932 594.4366 638.8219 28786.3925 3.0301 2.9646
TCL: Running 100000 steps at 210 kelvin.
TCL: Setting parameter langevinTemp to 210
TCL: Running for 100000 steps
ETITLE: TS BOND ANGLE DIHED IMPRP ELECT VDW BOUNDARY MISC KINETIC TOTAL TEMP POTENTIAL TOTAL3 TEMPAVG PRESSURE GPRESSURE VOLUME PRESSAVG GPRESSAVG
ENERGY: 600000 0.0000 0.0000 0.0000 0.0000 -13311.5141 2178.6986 0.0000 0.0000 1047.9106 -10084.9049 179.1820 -11132.8156 -10082.6084 179.1820 572.9042 637.9810 28786.3925 572.9042 637.9810
ENERGY: 700000 0.0000 0.0000 0.0000 0.0000 -12669.7451 1970.7412 0.0000 0.0000 1232.4492 -9466.5547 210.7362 -10699.0040 -9463.9307 210.1422 659.9988 653.8716 28908.6154 2.8764 2.7795
TCL: Running 100000 steps at 240 kelvin.
TCL: Setting parameter langevinTemp to 240
TCL: Running for 100000 steps
ETITLE: TS BOND ANGLE DIHED IMPRP ELECT VDW BOUNDARY MISC KINETIC TOTAL TEMP POTENTIAL TOTAL3 TEMPAVG PRESSURE GPRESSURE VOLUME PRESSAVG GPRESSAVG
ENERGY: 700000 0.0000 0.0000 0.0000 0.0000 -12669.7451 1970.7412 0.0000 0.0000 1231.8373 -9467.1666 210.6316 -10699.0040 -9465.0988 210.6316 596.1439 652.6609 28908.6154 596.1439 652.6609
ENERGY: 800000 0.0000 0.0000 0.0000 0.0000 -11906.6673 1715.9227 0.0000 0.0000 1402.6903 -8788.0543 239.8457 -10190.7446 -8786.2721 239.5980 188.3623 239.3903 29158.2519 4.0979 4.0078
TCL: Running 100000 steps at 270 kelvin.
TCL: Setting parameter langevinTemp to 270
TCL: Running for 100000 steps
ETITLE: TS BOND ANGLE DIHED IMPRP ELECT VDW BOUNDARY MISC KINETIC TOTAL TEMP POTENTIAL TOTAL3 TEMPAVG PRESSURE GPRESSURE VOLUME PRESSAVG GPRESSAVG
ENERGY: 800000 0.0000 0.0000 0.0000 0.0000 -11906.6673 1715.9227 0.0000 0.0000 1401.9725 -8788.7721 239.7230 -10190.7446 -8786.1648 239.7230 155.6426 238.8214 29158.2519 155.6426 238.8214
ENERGY: 900000 0.0000 0.0000 0.0000 0.0000 -11345.5067 1574.0193 0.0000 0.0000 1524.7111 -8246.7764 260.7100 -9771.4874 -8245.9309 269.7435 386.0875 495.3141 29410.2608 4.0038 3.9408
TCL: Running 1000000 steps at 300 kelvin.
TCL: Setting parameter langevinTemp to 300
TCL: Running for 1000000 steps
ETITLE: TS BOND ANGLE DIHED IMPRP ELECT VDW BOUNDARY MISC KINETIC TOTAL TEMP POTENTIAL TOTAL3 TEMPAVG PRESSURE GPRESSURE VOLUME PRESSAVG GPRESSAVG
ENERGY: 900000 0.0000 0.0000 0.0000 0.0000 -11345.5067 1574.0193 0.0000 0.0000 1523.8775 -8247.6099 260.5675 -9771.4874 -8244.7942 260.5675 409.0877 492.5818 29410.2608 409.0877 492.5818
ENERGY: 1100000 0.0000 0.0000 0.0000 0.0000 -10883.5910 1430.9822 0.0000 0.0000 1738.3294 -7714.2794 297.2365 -9452.6088 -7711.4985 300.1246 -140.7808 -18.6230 30585.2965 4.1831 4.3464
ENERGY: 1300000 0.0000 0.0000 0.0000 0.0000 -10663.1335 1329.4651 0.0000 0.0000 1752.4863 -7581.1820 299.6572 -9333.6683 -7577.9114 300.5800 -837.8702 -769.4156 31058.0060 2.2520 2.3178
ENERGY: 1500000 0.0000 0.0000 0.0000 0.0000 -10924.4024 1483.9917 0.0000 0.0000 1757.6031 -7682.8075 300.5322 -9440.4107 -7679.6700 300.2302 493.9651 556.5717 30196.1883 3.4185 3.3039
ENERGY: 1700000 0.0000 0.0000 0.0000 0.0000 -10676.1796 1364.9387 0.0000 0.0000 1803.6722 -7507.5686 308.4095 -9311.2408 -7504.4682 300.5255 -200.9502 -96.4639 30635.9328 4.4246 4.6285
ENERGY: 1900000 0.0000 0.0000 0.0000 0.0000 -10976.8512 1562.3236 0.0000 0.0000 1710.4637 -7704.0639 292.4718 -9414.5276 -7701.8381 299.7887 978.6218 1053.6368 30303.7297 2.9438 2.8699
TCL: Exiting due to exit command.
