Info: SIMULATION PARAMETERS:
Info: TIMESTEP               2
Info: NUMBER OF STEPS        0
Info: STEPS PER CYCLE        10
Info: PERIODIC CELL BASIS 1  39.416 0 0
Info: PERIODIC CELL BASIS 2  0 35.267 0
Info: PERIODIC CELL BASIS 3  0 0 31.855
Info: PERIODIC CELL CENTER   0 0 0
Info: WRAPPING WATERS AROUND PERIODIC BOUNDARIES ON OUTPUT.
Info: WRAPPING ALL CLUSTERS AROUND PERIODIC BOUNDARIES ON OUTPUT.
Info: FIRST LDB TIMESTEP     50
Info: LAST LDB TIMESTEP     -1
Info: HOM BACKGROUND SCALING 1
Info: PME BACKGROUND SCALING 1
Info: MIN ATOMS PER PATCH    40
Info: EMPTY PATCH LOAD       40 ATOMS
Info: INITIAL TEMPERATURE    300
Info: CENTER OF MASS MOVING INITIALLY? NO
Info: DIELECTRIC             1
Info: EXCLUDE                SCALED ONE-FOUR
Info: 1-4 ELECTROSTATICS SCALED BY 0.833333
Info: MODIFIED 1-4 VDW PARAMETERS WILL BE USED
Info: DCD FILENAME           mobley_8823527_equil.dcd
Info: DCD FREQUENCY          100000
Info: DCD FIRST STEP         100000
Info: DCD FILE WILL CONTAIN UNIT CELL DATA
Info: XST FILENAME           mobley_8823527_equil.xst
Info: XST FREQUENCY          100000
Info: NO VELOCITY DCD OUTPUT
Info: NO FORCE DCD OUTPUT
Info: OUTPUT FILENAME        mobley_8823527_equil
Info: BINARY OUTPUT FILES WILL BE USED
Info: RESTART FILENAME       mobley_8823527_equil.restart
Info: RESTART FREQUENCY      100000
Info: BINARY RESTART FILES WILL BE USED
Info: CUTOFF                 9
Info: PAIRLIST DISTANCE      11
Info: PAIRLIST SHRINK RATE   0.01
Info: PAIRLIST GROW RATE     0.01
Info: PAIRLIST TRIGGER       0.3
Info: PAIRLISTS PER CYCLE    2
Info: PAIRLISTS ENABLED
Info: MARGIN                 8
Info: HYDROGEN GROUP CUTOFF  2.5
Info: PATCH DIMENSION        21.5
Info: ENERGY OUTPUT STEPS    100000
Info: ENERGY EVALUATION STEPS    100000
Info: OUTPUT ENERGY PRECISION 4
Info: CROSSTERM ENERGY INCLUDED IN DIHEDRAL
Info: TIMING OUTPUT STEPS    1000000
Info: PRESSURE OUTPUT STEPS  100000
Info: FIXED ATOMS ACTIVE
Info: LANGEVIN DYNAMICS ACTIVE
Info: LANGEVIN TEMPERATURE   30
Info: LANGEVIN USING BBK INTEGRATOR
Info: LANGEVIN DAMPING COEFFICIENT IS 1 INVERSE PS
Info: LANGEVIN DYNAMICS APPLIED TO HYDROGENS
Info: LANGEVIN PISTON PRESSURE CONTROL ACTIVE
Info:        TARGET PRESSURE IS 1.01325 BAR
Info:     OSCILLATION PERIOD IS 50 FS
Info:             DECAY TIME IS 25 FS
Info:     PISTON TEMPERATURE IS 300 K
Info:       PRESSURE CONTROL IS GROUP-BASED
Info:    INITIAL STRAIN RATE IS 0 0 0
Info:       CELL FLUCTUATION IS ISOTROPIC
Info: PARTICLE MESH EWALD (PME) ACTIVE
Info: PME TOLERANCE               1e-06
Info: PME EWALD COEFFICIENT       0.348832
Info: PME INTERPOLATION ORDER     4
Info: PME GRID DIMENSIONS         40 36 32
Info: PME MAXIMUM GRID SPACING    1
Info: FULL ELECTROSTATIC EVALUATION FREQUENCY      2
Info: USING VERLET I (r-RESPA) MTS SCHEME.
Info: C1 SPLITTING OF LONG RANGE ELECTROSTATICS
Info: PLACING ATOMS IN PATCHES BY HYDROGEN GROUPS
Info: RIGID BONDS TO HYDROGEN : ALL
Info:         ERROR TOLERANCE : 1e-08
Info:          MAX ITERATIONS : 100
Info: RIGID WATER USING SETTLE ALGORITHM
Info: RANDOM NUMBER SEED     1744726502
Info: USE HYDROGEN BONDS?    NO
Info: Using AMBER format force field!
Info: AMBER PARM FILE        mobley_8823527.prmtop
Info: COORDINATE PDB         mobley_8823527.pdb
Info: Exclusions will be read from PARM file!
Info: SCNB (VDW SCALING)     2
Info: USING ARITHMETIC MEAN TO COMBINE L-J SIGMA PARAMETERS
Info: BINARY COORDINATES     mobley_8823527_min.coor
Info: SUMMARY OF PARAMETERS:
Info: 7 BONDS
Info: 8 ANGLES
Info:   8 HARMONIC
Info:   0 COSINE-BASED
Info: 3 DIHEDRAL
Info: 0 IMPROPER
Info: 0 CROSSTERM
Info: 0 VDW
Info: 15 VDW_PAIRS
Info: 0 NBTHOLE_PAIRS
Info: STRUCTURE SUMMARY:
Info: 2989 ATOMS
Info: 2990 BONDS
Info: 36 ANGLES
Info: 64 DIHEDRALS
Info: 0 IMPROPERS
Info: 0 CROSSTERMS
Info: 3072 EXCLUSIONS
Info: 22 FIXED ATOMS
Info: 2972 RIGID BONDS
Info: 5 RIGID BONDS BETWEEN FIXED ATOMS
Info: 5934 DEGREES OF FREEDOM
Info: 1006 HYDROGEN GROUPS
Info: 3 ATOMS IN LARGEST HYDROGEN GROUP
Info: 1006 MIGRATION GROUPS
Info: 3 ATOMS IN LARGEST MIGRATION GROUP
Info: 17 HYDROGEN GROUPS WITH ALL ATOMS FIXED
Info: TOTAL MASS = 18144.2 amu
Info: TOTAL CHARGE = 2.79397e-08 e
Info: MASS DENSITY = 0.680423 g/cm^3
Info: ATOM DENSITY = 0.0675005 atoms/A^3
Info: ADDED 0 IMPLICIT EXCLUSIONS
Info: NONBONDED TABLE R-SQUARED SPACING: 0.0625
Info: NONBONDED TABLE SIZE: 705 POINTS
Info: REMOVING COM VELOCITY 0.0137893 0.0601951 -0.221409
TCL: Running for 100000 steps
ETITLE: TS BOND ANGLE DIHED IMPRP ELECT VDW BOUNDARY MISC KINETIC TOTAL TEMP POTENTIAL TOTAL3 TEMPAVG PRESSURE GPRESSURE VOLUME PRESSAVG GPRESSAVG
ENERGY: 0 0.0000 0.0000 0.0000 0.0000 -13778.8367 2370.0460 0.0000 0.0000 1739.6347 -9669.1560 295.0536 -11408.7907 -9668.8111 295.0536 106.2481 135.8431 44281.1281 106.2481 135.8431
ENERGY: 100000 0.0000 0.0000 0.0000 0.0000 -14333.2932 2476.4394 0.0000 0.0000 176.4616 -11680.3922 29.9291 -11856.8538 -11679.8066 30.8822 55.6274 124.8246 29347.1781 3.0660 3.0275
TCL: Running 100000 steps at 60 kelvin.
TCL: Setting parameter langevinTemp to 60
TCL: Running for 100000 steps
ETITLE: TS BOND ANGLE DIHED IMPRP ELECT VDW BOUNDARY MISC KINETIC TOTAL TEMP POTENTIAL TOTAL3 TEMPAVG PRESSURE GPRESSURE VOLUME PRESSAVG GPRESSAVG
ENERGY: 100000 0.0000 0.0000 0.0000 0.0000 -14333.2932 2476.4394 0.0000 0.0000 176.3744 -11680.4794 29.9143 -11856.8538 -11680.0720 29.9143 62.1920 124.8656 29347.1781 62.1920 124.8656
ENERGY: 200000 0.0000 0.0000 0.0000 0.0000 -14199.7175 2396.6392 0.0000 0.0000 367.7600 -11435.3184 62.3745 -11803.0784 -11434.0587 59.9765 -338.9325 -286.3931 29161.9991 3.8875 3.9171
TCL: Running 100000 steps at 90 kelvin.
TCL: Setting parameter langevinTemp to 90
TCL: Running for 100000 steps
ETITLE: TS BOND ANGLE DIHED IMPRP ELECT VDW BOUNDARY MISC KINETIC TOTAL TEMP POTENTIAL TOTAL3 TEMPAVG PRESSURE GPRESSURE VOLUME PRESSAVG GPRESSAVG
ENERGY: 200000 0.0000 0.0000 0.0000 0.0000 -14199.7176 2396.6392 0.0000 0.0000 367.5877 -11435.4907 62.3453 -11803.0784 -11434.5917 62.3453 -341.1444 -286.5524 29161.9991 -341.1444 -286.5524
ENERGY: 300000 0.0000 0.0000 0.0000 0.0000 -14026.4956 2291.3271 0.0000 0.0000 529.1805 -11205.9880 89.7525 -11735.1685 -11204.3738 90.1343 -958.5419 -881.7962 29247.7501 5.0013 4.9960
TCL: Running 100000 steps at 120 kelvin.
TCL: Setting parameter langevinTemp to 120
TCL: Running for 100000 steps
ETITLE: TS BOND ANGLE DIHED IMPRP ELECT VDW BOUNDARY MISC KINETIC TOTAL TEMP POTENTIAL TOTAL3 TEMPAVG PRESSURE GPRESSURE VOLUME PRESSAVG GPRESSAVG
ENERGY: 300000 0.0000 0.0000 0.0000 0.0000 -14026.4956 2291.3271 0.0000 0.0000 528.9172 -11206.2513 89.7079 -11735.1685 -11205.2780 89.7079 -933.8659 -881.2611 29247.7501 -933.8659 -881.2611
ENERGY: 400000 0.0000 0.0000 0.0000 0.0000 -13959.6532 2367.5087 0.0000 0.0000 691.3310 -10900.8135 117.2543 -11592.1445 -10898.2715 119.6569 109.1544 200.6918 29095.2833 2.9838 2.9190
TCL: Running 100000 steps at 150 kelvin.
TCL: Setting parameter langevinTemp to 150
TCL: Running for 100000 steps
ETITLE: TS BOND ANGLE DIHED IMPRP ELECT VDW BOUNDARY MISC KINETIC TOTAL TEMP POTENTIAL TOTAL3 TEMPAVG PRESSURE GPRESSURE VOLUME PRESSAVG GPRESSAVG
ENERGY: 400000 0.0000 0.0000 0.0000 0.0000 -13959.6532 2367.5087 0.0000 0.0000 690.9897 -10901.1548 117.1964 -11592.1445 -10899.5210 117.1964 137.7843 201.1074 29095.2833 137.7843 201.1074
ENERGY: 500000 0.0000 0.0000 0.0000 0.0000 -13639.1861 2239.4184 0.0000 0.0000 897.8167 -10501.9510 152.2757 -11399.7677 -10499.4702 149.9158 -243.2853 -205.9037 29485.7728 3.1026 3.1255
TCL: Running 100000 steps at 180 kelvin.
TCL: Setting parameter langevinTemp to 180
TCL: Running for 100000 steps
ETITLE: TS BOND ANGLE DIHED IMPRP ELECT VDW BOUNDARY MISC KINETIC TOTAL TEMP POTENTIAL TOTAL3 TEMPAVG PRESSURE GPRESSURE VOLUME PRESSAVG GPRESSAVG
ENERGY: 500000 0.0000 0.0000 0.0000 0.0000 -13639.1861 2239.4184 0.0000 0.0000 897.3843 -10502.3834 152.2023 -11399.7677 -10500.9895 152.2023 -261.7592 -205.5105 29485.7728 -261.7592 -205.5105
ENERGY: 600000 0.0000 0.0000 0.0000 0.0000 -13274.9470 2119.3269 0.0000 0.0000 1071.7450 -10083.8751 181.7751 -11155.6201 -10081.0004 180.1085 -267.1574 -242.6863 29463.4078 3.5252 3.4785
TCL: Running 100000 steps at 210 kelvin.
TCL: Setting parameter langevinTemp to 210
TCL: Running for 100000 steps
ETITLE: TS BOND ANGLE DIHED IMPRP ELECT VDW BOUNDARY MISC KINETIC TOTAL TEMP POTENTIAL TOTAL3 TEMPAVG PRESSURE GPRESSURE VOLUME PRESSAVG GPRESSAVG
ENERGY: 600000 0.0000 0.0000 0.0000 0.0000 -13274.9470 2119.3269 0.0000 0.0000 1071.2096 -10084.4105 181.6843 -11155.6201 -10082.6467 181.6843 -301.2566 -242.0818 29463.4078 -301.2566 -242.0818
ENERGY: 700000 0.0000 0.0000 0.0000 0.0000 -12665.5822 1936.2739 0.0000 0.0000 1225.4786 -9503.8297 207.8493 -10729.3084 -9499.9955 209.4586 36.0091 119.0712 29113.9874 2.9021 3.0659
TCL: Running 100000 steps at 240 kelvin.
TCL: Setting parameter langevinTemp to 240
TCL: Running for 100000 steps
ETITLE: TS BOND ANGLE DIHED IMPRP ELECT VDW BOUNDARY MISC KINETIC TOTAL TEMP POTENTIAL TOTAL3 TEMPAVG PRESSURE GPRESSURE VOLUME PRESSAVG GPRESSAVG
ENERGY: 700000 0.0000 0.0000 0.0000 0.0000 -12665.5822 1936.2739 0.0000 0.0000 1224.8557 -9504.4526 207.7437 -10729.3084 -9502.6052 207.7437 43.1576 120.4882 29113.9874 43.1576 120.4882
ENERGY: 800000 0.0000 0.0000 0.0000 0.0000 -11783.4119 1665.3673 0.0000 0.0000 1434.7173 -8683.3272 243.3376 -10118.0445 -8681.4940 239.7621 -417.1556 -323.3391 29947.0828 3.1213 3.2912
TCL: Running 100000 steps at 270 kelvin.
TCL: Setting parameter langevinTemp to 270
TCL: Running for 100000 steps
ETITLE: TS BOND ANGLE DIHED IMPRP ELECT VDW BOUNDARY MISC KINETIC TOTAL TEMP POTENTIAL TOTAL3 TEMPAVG PRESSURE GPRESSURE VOLUME PRESSAVG GPRESSAVG
ENERGY: 800000 0.0000 0.0000 0.0000 0.0000 -11783.4119 1665.3673 0.0000 0.0000 1434.0132 -8684.0313 243.2182 -10118.0445 -8681.3010 243.2182 -400.4344 -323.3487 29947.0828 -400.4344 -323.3487
ENERGY: 900000 0.0000 0.0000 0.0000 0.0000 -11315.8749 1502.9015 0.0000 0.0000 1555.4678 -8257.5057 263.8177 -9812.9734 -8250.9972 269.8228 -779.0322 -673.6977 30335.0953 3.2546 3.0877
TCL: Running 1000000 steps at 300 kelvin.
TCL: Setting parameter langevinTemp to 300
TCL: Running for 1000000 steps
ETITLE: TS BOND ANGLE DIHED IMPRP ELECT VDW BOUNDARY MISC KINETIC TOTAL TEMP POTENTIAL TOTAL3 TEMPAVG PRESSURE GPRESSURE VOLUME PRESSAVG GPRESSAVG
ENERGY: 900000 0.0000 0.0000 0.0000 0.0000 -11315.8749 1502.9015 0.0000 0.0000 1554.6342 -8258.3392 263.6763 -9812.9734 -8255.1723 263.6763 -745.8066 -669.0116 30335.0953 -745.8066 -669.0116
ENERGY: 1100000 0.0000 0.0000 0.0000 0.0000 -10852.5554 1407.8949 0.0000 0.0000 1760.1436 -7684.5170 298.5320 -9444.6605 -7679.0330 300.5480 -415.5516 -321.6662 30726.5521 3.2343 3.1407
ENERGY: 1300000 0.0000 0.0000 0.0000 0.0000 -10775.3883 1418.9948 0.0000 0.0000 1743.6921 -7612.7015 295.7417 -9356.3936 -7610.9024 299.7300 -180.0534 -136.2130 31026.3643 3.6734 3.7762
ENERGY: 1500000 0.0000 0.0000 0.0000 0.0000 -10670.7905 1433.2772 0.0000 0.0000 1818.2605 -7419.2527 308.3890 -9237.5132 -7413.0177 299.7146 143.8683 213.4943 31471.9625 3.2506 3.1548
ENERGY: 1700000 0.0000 0.0000 0.0000 0.0000 -10860.9409 1463.7109 0.0000 0.0000 1796.5056 -7600.7243 304.6993 -9397.2300 -7597.7922 300.0621 125.3675 184.5271 30778.1787 3.1691 3.0835
ENERGY: 1900000 0.0000 0.0000 0.0000 0.0000 -10852.6416 1440.8030 0.0000 0.0000 1716.8311 -7695.0076 291.1859 -9411.8387 -7690.0663 300.1278 -176.8400 -157.8105 31191.1778 3.4599 3.4427
TCL: Exiting due to exit command.
