Info: SIMULATION PARAMETERS:
Info: TIMESTEP               2
Info: NUMBER OF STEPS        0
Info: STEPS PER CYCLE        10
Info: PERIODIC CELL BASIS 1  36.281 0 0
Info: PERIODIC CELL BASIS 2  0 35.411 0
Info: PERIODIC CELL BASIS 3  0 0 34.471
Info: PERIODIC CELL CENTER   0 0 0
Info: WRAPPING WATERS AROUND PERIODIC BOUNDARIES ON OUTPUT.
Info: WRAPPING ALL CLUSTERS AROUND PERIODIC BOUNDARIES ON OUTPUT.
Info: FIRST LDB TIMESTEP     50
Info: LAST LDB TIMESTEP     -1
Info: HOM BACKGROUND SCALING 1
Info: PME BACKGROUND SCALING 1
Info: MIN ATOMS PER PATCH    40
Info: EMPTY PATCH LOAD       40 ATOMS
Info: INITIAL TEMPERATURE    300
Info: CENTER OF MASS MOVING INITIALLY? NO
Info: DIELECTRIC             1
Info: EXCLUDE                SCALED ONE-FOUR
Info: 1-4 ELECTROSTATICS SCALED BY 0.833333
Info: MODIFIED 1-4 VDW PARAMETERS WILL BE USED
Info: DCD FILENAME           mobley_9838013_equil.dcd
Info: DCD FREQUENCY          100000
Info: DCD FIRST STEP         100000
Info: DCD FILE WILL CONTAIN UNIT CELL DATA
Info: XST FILENAME           mobley_9838013_equil.xst
Info: XST FREQUENCY          100000
Info: NO VELOCITY DCD OUTPUT
Info: NO FORCE DCD OUTPUT
Info: OUTPUT FILENAME        mobley_9838013_equil
Info: BINARY OUTPUT FILES WILL BE USED
Info: RESTART FILENAME       mobley_9838013_equil.restart
Info: RESTART FREQUENCY      100000
Info: BINARY RESTART FILES WILL BE USED
Info: CUTOFF                 9
Info: PAIRLIST DISTANCE      11
Info: PAIRLIST SHRINK RATE   0.01
Info: PAIRLIST GROW RATE     0.01
Info: PAIRLIST TRIGGER       0.3
Info: PAIRLISTS PER CYCLE    2
Info: PAIRLISTS ENABLED
Info: MARGIN                 8
Info: HYDROGEN GROUP CUTOFF  2.5
Info: PATCH DIMENSION        21.5
Info: ENERGY OUTPUT STEPS    100000
Info: ENERGY EVALUATION STEPS    100000
Info: OUTPUT ENERGY PRECISION 4
Info: CROSSTERM ENERGY INCLUDED IN DIHEDRAL
Info: TIMING OUTPUT STEPS    1000000
Info: PRESSURE OUTPUT STEPS  100000
Info: FIXED ATOMS ACTIVE
Info: LANGEVIN DYNAMICS ACTIVE
Info: LANGEVIN TEMPERATURE   30
Info: LANGEVIN USING BBK INTEGRATOR
Info: LANGEVIN DAMPING COEFFICIENT IS 1 INVERSE PS
Info: LANGEVIN DYNAMICS APPLIED TO HYDROGENS
Info: LANGEVIN PISTON PRESSURE CONTROL ACTIVE
Info:        TARGET PRESSURE IS 1.01325 BAR
Info:     OSCILLATION PERIOD IS 50 FS
Info:             DECAY TIME IS 25 FS
Info:     PISTON TEMPERATURE IS 300 K
Info:       PRESSURE CONTROL IS GROUP-BASED
Info:    INITIAL STRAIN RATE IS 0 0 0
Info:       CELL FLUCTUATION IS ISOTROPIC
Info: PARTICLE MESH EWALD (PME) ACTIVE
Info: PME TOLERANCE               1e-06
Info: PME EWALD COEFFICIENT       0.348832
Info: PME INTERPOLATION ORDER     4
Info: PME GRID DIMENSIONS         40 36 36
Info: PME MAXIMUM GRID SPACING    1
Info: FULL ELECTROSTATIC EVALUATION FREQUENCY      2
Info: USING VERLET I (r-RESPA) MTS SCHEME.
Info: C1 SPLITTING OF LONG RANGE ELECTROSTATICS
Info: PLACING ATOMS IN PATCHES BY HYDROGEN GROUPS
Info: RIGID BONDS TO HYDROGEN : ALL
Info:         ERROR TOLERANCE : 1e-08
Info:          MAX ITERATIONS : 100
Info: RIGID WATER USING SETTLE ALGORITHM
Info: RANDOM NUMBER SEED     1744721427
Info: USE HYDROGEN BONDS?    NO
Info: Using AMBER format force field!
Info: AMBER PARM FILE        mobley_9838013.prmtop
Info: COORDINATE PDB         mobley_9838013.pdb
Info: Exclusions will be read from PARM file!
Info: SCNB (VDW SCALING)     2
Info: USING ARITHMETIC MEAN TO COMBINE L-J SIGMA PARAMETERS
Info: BINARY COORDINATES     mobley_9838013_min.coor
Info: SUMMARY OF PARAMETERS:
Info: 6 BONDS
Info: 5 ANGLES
Info: 8 DIHEDRAL
Info: 0 IMPROPER
Info: 0 CROSSTERM
Info: 0 VDW
Info: 15 VDW_PAIRS
Info: 0 NBTHOLE_PAIRS
Info: STRUCTURE SUMMARY:
Info: 2907 ATOMS
Info: 2906 BONDS
Info: 31 ANGLES
Info: 54 DIHEDRALS
Info: 0 IMPROPERS
Info: 0 CROSSTERMS
Info: 2976 EXCLUSIONS
Info: 18 FIXED ATOMS
Info: 2901 RIGID BONDS
Info: 12 RIGID BONDS BETWEEN FIXED ATOMS
Info: 5778 DEGREES OF FREEDOM
Info: 969 HYDROGEN GROUPS
Info: 4 ATOMS IN LARGEST HYDROGEN GROUP
Info: 969 MIGRATION GROUPS
Info: 4 ATOMS IN LARGEST MIGRATION GROUP
Info: 6 HYDROGEN GROUPS WITH ALL ATOMS FIXED
Info: TOTAL MASS = 17437.6 amu
Info: TOTAL CHARGE = 3.72529e-08 e
Info: MASS DENSITY = 0.653843 g/cm^3
Info: ATOM DENSITY = 0.0656408 atoms/A^3
Info: ADDED 0 IMPLICIT EXCLUSIONS
Info: NONBONDED TABLE R-SQUARED SPACING: 0.0625
Info: NONBONDED TABLE SIZE: 705 POINTS
Info: REMOVING COM VELOCITY -0.0128441 -0.0483937 -0.149034
TCL: Running for 100000 steps
ETITLE: TS BOND ANGLE DIHED IMPRP ELECT VDW BOUNDARY MISC KINETIC TOTAL TEMP POTENTIAL TOTAL3 TEMPAVG PRESSURE GPRESSURE VOLUME PRESSAVG GPRESSAVG
ENERGY: 0 0.0000 0.0000 0.0000 0.0000 -13501.6001 2376.6677 0.0000 0.0000 1680.1503 -9444.7821 292.6584 -11124.9324 -9444.4632 292.6584 435.1980 469.9818 44286.4963 435.1980 469.9818
ENERGY: 100000 0.0000 0.0000 0.0000 0.0000 -14081.1917 2481.3073 0.0000 0.0000 169.8144 -11430.0700 29.5793 -11599.8844 -11429.5863 30.8421 192.0102 238.7389 28641.1855 2.6782 2.6319
TCL: Running 100000 steps at 60 kelvin.
TCL: Setting parameter langevinTemp to 60
TCL: Running for 100000 steps
ETITLE: TS BOND ANGLE DIHED IMPRP ELECT VDW BOUNDARY MISC KINETIC TOTAL TEMP POTENTIAL TOTAL3 TEMPAVG PRESSURE GPRESSURE VOLUME PRESSAVG GPRESSAVG
ENERGY: 100000 0.0000 0.0000 0.0000 0.0000 -14081.1917 2481.3073 0.0000 0.0000 169.7296 -11430.1548 29.5645 -11599.8844 -11429.7795 29.5645 183.2158 238.8859 28641.1855 183.2158 238.8859
ENERGY: 200000 0.0000 0.0000 0.0000 0.0000 -14067.8155 2542.4586 0.0000 0.0000 353.8199 -11171.5370 61.6304 -11525.3569 -11170.6847 59.9321 1190.0933 1232.7815 28121.3383 4.4848 4.4635
TCL: Running 100000 steps at 90 kelvin.
TCL: Setting parameter langevinTemp to 90
TCL: Running for 100000 steps
ETITLE: TS BOND ANGLE DIHED IMPRP ELECT VDW BOUNDARY MISC KINETIC TOTAL TEMP POTENTIAL TOTAL3 TEMPAVG PRESSURE GPRESSURE VOLUME PRESSAVG GPRESSAVG
ENERGY: 200000 0.0000 0.0000 0.0000 0.0000 -14067.8155 2542.4586 0.0000 0.0000 353.6432 -11171.7137 61.5996 -11525.3569 -11171.0890 61.5996 1199.1712 1232.7655 28121.3383 1199.1712 1232.7655
ENERGY: 300000 0.0000 0.0000 0.0000 0.0000 -13781.7898 2336.4794 0.0000 0.0000 518.4176 -10926.8929 90.3010 -11445.3105 -10925.2259 89.9723 -294.6870 -233.7744 28526.4341 2.2360 2.2554
TCL: Running 100000 steps at 120 kelvin.
TCL: Setting parameter langevinTemp to 120
TCL: Running for 100000 steps
ETITLE: TS BOND ANGLE DIHED IMPRP ELECT VDW BOUNDARY MISC KINETIC TOTAL TEMP POTENTIAL TOTAL3 TEMPAVG PRESSURE GPRESSURE VOLUME PRESSAVG GPRESSAVG
ENERGY: 300000 0.0000 0.0000 0.0000 0.0000 -13781.7898 2336.4794 0.0000 0.0000 518.1469 -10927.1636 90.2539 -11445.3105 -10926.0822 90.2539 -254.6478 -233.3746 28526.4341 -254.6478 -233.3746
ENERGY: 400000 0.0000 0.0000 0.0000 0.0000 -13680.5652 2376.7933 0.0000 0.0000 670.9812 -10632.7907 116.8754 -11303.7719 -10631.1719 120.1392 537.0651 562.3705 28513.4094 4.0462 4.0687
TCL: Running 100000 steps at 150 kelvin.
TCL: Setting parameter langevinTemp to 150
TCL: Running for 100000 steps
ETITLE: TS BOND ANGLE DIHED IMPRP ELECT VDW BOUNDARY MISC KINETIC TOTAL TEMP POTENTIAL TOTAL3 TEMPAVG PRESSURE GPRESSURE VOLUME PRESSAVG GPRESSAVG
ENERGY: 400000 0.0000 0.0000 0.0000 0.0000 -13680.5652 2376.7933 0.0000 0.0000 670.6494 -10633.1224 116.8176 -11303.7719 -10631.8571 116.8176 523.8691 561.7269 28513.4094 523.8691 561.7269
ENERGY: 500000 0.0000 0.0000 0.0000 0.0000 -13279.5377 2159.9387 0.0000 0.0000 857.0966 -10262.5025 149.2941 -11119.5990 -10261.1365 149.9917 -623.8401 -526.9235 28884.6958 3.7708 3.7794
TCL: Running 100000 steps at 180 kelvin.
TCL: Setting parameter langevinTemp to 180
TCL: Running for 100000 steps
ETITLE: TS BOND ANGLE DIHED IMPRP ELECT VDW BOUNDARY MISC KINETIC TOTAL TEMP POTENTIAL TOTAL3 TEMPAVG PRESSURE GPRESSURE VOLUME PRESSAVG GPRESSAVG
ENERGY: 500000 0.0000 0.0000 0.0000 0.0000 -13279.5377 2159.9387 0.0000 0.0000 856.6668 -10262.9322 149.2192 -11119.5990 -10261.3366 149.2192 -580.0685 -526.9337 28884.6958 -580.0685 -526.9337
ENERGY: 600000 0.0000 0.0000 0.0000 0.0000 -12841.5130 2016.5898 0.0000 0.0000 1051.3497 -9773.5735 183.1302 -10824.9232 -9771.0696 180.3073 -535.9652 -421.3074 28559.9935 3.5831 3.8278
TCL: Running 100000 steps at 210 kelvin.
TCL: Setting parameter langevinTemp to 210
TCL: Running for 100000 steps
ETITLE: TS BOND ANGLE DIHED IMPRP ELECT VDW BOUNDARY MISC KINETIC TOTAL TEMP POTENTIAL TOTAL3 TEMPAVG PRESSURE GPRESSURE VOLUME PRESSAVG GPRESSAVG
ENERGY: 600000 0.0000 0.0000 0.0000 0.0000 -12841.5130 2016.5898 0.0000 0.0000 1050.8311 -9774.0922 183.0399 -10824.9232 -9772.0959 183.0399 -494.0320 -421.0133 28559.9935 -494.0320 -421.0133
ENERGY: 700000 0.0000 0.0000 0.0000 0.0000 -12400.4615 1993.0607 0.0000 0.0000 1202.5591 -9204.8417 209.4688 -10407.4008 -9202.6571 210.4635 810.5532 914.5379 28494.6744 4.3740 4.4955
TCL: Running 100000 steps at 240 kelvin.
TCL: Setting parameter langevinTemp to 240
TCL: Running for 100000 steps
ETITLE: TS BOND ANGLE DIHED IMPRP ELECT VDW BOUNDARY MISC KINETIC TOTAL TEMP POTENTIAL TOTAL3 TEMPAVG PRESSURE GPRESSURE VOLUME PRESSAVG GPRESSAVG
ENERGY: 700000 0.0000 0.0000 0.0000 0.0000 -12400.4615 1993.0607 0.0000 0.0000 1201.9808 -9205.4200 209.3680 -10407.4008 -9203.6108 209.3680 822.0873 913.3278 28494.6744 822.0873 913.3278
ENERGY: 800000 0.0000 0.0000 0.0000 0.0000 -11560.6704 1658.5740 0.0000 0.0000 1359.8310 -8542.2654 236.8633 -9902.0964 -8540.1616 240.0480 -225.3360 -156.9022 28767.4110 3.7194 3.6945
TCL: Running 100000 steps at 270 kelvin.
TCL: Setting parameter langevinTemp to 270
TCL: Running for 100000 steps
ETITLE: TS BOND ANGLE DIHED IMPRP ELECT VDW BOUNDARY MISC KINETIC TOTAL TEMP POTENTIAL TOTAL3 TEMPAVG PRESSURE GPRESSURE VOLUME PRESSAVG GPRESSAVG
ENERGY: 800000 0.0000 0.0000 0.0000 0.0000 -11560.6704 1658.5740 0.0000 0.0000 1359.1285 -8542.9679 236.7409 -9902.0964 -8541.4641 236.7409 -245.8843 -157.0643 28767.4110 -245.8843 -157.0643
ENERGY: 900000 0.0000 0.0000 0.0000 0.0000 -10999.4916 1492.8178 0.0000 0.0000 1565.6704 -7941.0035 272.7176 -9506.6739 -7937.1081 270.4879 -129.5418 -53.9992 28911.6477 3.0117 2.8422
TCL: Running 1000000 steps at 300 kelvin.
TCL: Setting parameter langevinTemp to 300
TCL: Running for 1000000 steps
ETITLE: TS BOND ANGLE DIHED IMPRP ELECT VDW BOUNDARY MISC KINETIC TOTAL TEMP POTENTIAL TOTAL3 TEMPAVG PRESSURE GPRESSURE VOLUME PRESSAVG GPRESSAVG
ENERGY: 900000 0.0000 0.0000 0.0000 0.0000 -10999.4916 1492.8178 0.0000 0.0000 1564.8998 -7941.7741 272.5834 -9506.6739 -7939.3263 272.5834 -133.2846 -52.7476 28911.6477 -133.2846 -52.7476
ENERGY: 1100000 0.0000 0.0000 0.0000 0.0000 -10591.4536 1454.3888 0.0000 0.0000 1693.6041 -7443.4607 295.0018 -9137.0648 -7440.9291 300.9364 482.7847 557.2092 29666.8570 3.6116 3.4461
ENERGY: 1300000 0.0000 0.0000 0.0000 0.0000 -10564.1804 1432.6717 0.0000 0.0000 1727.8138 -7403.6949 300.9607 -9131.5087 -7401.4781 300.4113 237.5413 332.6809 29782.6826 4.0283 4.0450
ENERGY: 1500000 0.0000 0.0000 0.0000 0.0000 -10616.3801 1411.1056 0.0000 0.0000 1746.1218 -7459.1527 304.1497 -9205.2745 -7454.7148 299.7144 -327.0483 -259.2620 30205.1783 3.0745 3.0045
ENERGY: 1700000 0.0000 0.0000 0.0000 0.0000 -10684.3054 1424.8316 0.0000 0.0000 1675.9435 -7583.5303 291.9256 -9259.4738 -7580.8174 299.4579 -253.1329 -124.4181 29766.1925 3.6295 3.5433
ENERGY: 1900000 0.0000 0.0000 0.0000 0.0000 -10606.9283 1420.0340 0.0000 0.0000 1739.9949 -7446.8995 303.0825 -9186.8944 -7444.0215 300.0178 -8.0405 49.3867 29710.5708 2.1804 2.0714
TCL: Exiting due to exit command.
