Info: SIMULATION PARAMETERS:
Info: TIMESTEP               2
Info: NUMBER OF STEPS        0
Info: STEPS PER CYCLE        10
Info: PERIODIC CELL BASIS 1  37.133 0 0
Info: PERIODIC CELL BASIS 2  0 34.26 0
Info: PERIODIC CELL BASIS 3  0 0 34.68
Info: PERIODIC CELL CENTER   0 0 0
Info: WRAPPING WATERS AROUND PERIODIC BOUNDARIES ON OUTPUT.
Info: WRAPPING ALL CLUSTERS AROUND PERIODIC BOUNDARIES ON OUTPUT.
Info: FIRST LDB TIMESTEP     50
Info: LAST LDB TIMESTEP     -1
Info: HOM BACKGROUND SCALING 1
Info: PME BACKGROUND SCALING 1
Info: MIN ATOMS PER PATCH    40
Info: EMPTY PATCH LOAD       40 ATOMS
Info: INITIAL TEMPERATURE    300
Info: CENTER OF MASS MOVING INITIALLY? NO
Info: DIELECTRIC             1
Info: EXCLUDE                SCALED ONE-FOUR
Info: 1-4 ELECTROSTATICS SCALED BY 0.833333
Info: MODIFIED 1-4 VDW PARAMETERS WILL BE USED
Info: DCD FILENAME           mobley_5816127_equil.dcd
Info: DCD FREQUENCY          100000
Info: DCD FIRST STEP         100000
Info: DCD FILE WILL CONTAIN UNIT CELL DATA
Info: XST FILENAME           mobley_5816127_equil.xst
Info: XST FREQUENCY          100000
Info: NO VELOCITY DCD OUTPUT
Info: NO FORCE DCD OUTPUT
Info: OUTPUT FILENAME        mobley_5816127_equil
Info: BINARY OUTPUT FILES WILL BE USED
Info: RESTART FILENAME       mobley_5816127_equil.restart
Info: RESTART FREQUENCY      100000
Info: BINARY RESTART FILES WILL BE USED
Info: CUTOFF                 9
Info: PAIRLIST DISTANCE      11
Info: PAIRLIST SHRINK RATE   0.01
Info: PAIRLIST GROW RATE     0.01
Info: PAIRLIST TRIGGER       0.3
Info: PAIRLISTS PER CYCLE    2
Info: PAIRLISTS ENABLED
Info: MARGIN                 8
Info: HYDROGEN GROUP CUTOFF  2.5
Info: PATCH DIMENSION        21.5
Info: ENERGY OUTPUT STEPS    100000
Info: ENERGY EVALUATION STEPS    100000
Info: OUTPUT ENERGY PRECISION 4
Info: CROSSTERM ENERGY INCLUDED IN DIHEDRAL
Info: TIMING OUTPUT STEPS    1000000
Info: PRESSURE OUTPUT STEPS  100000
Info: FIXED ATOMS ACTIVE
Info: LANGEVIN DYNAMICS ACTIVE
Info: LANGEVIN TEMPERATURE   30
Info: LANGEVIN USING BBK INTEGRATOR
Info: LANGEVIN DAMPING COEFFICIENT IS 1 INVERSE PS
Info: LANGEVIN DYNAMICS APPLIED TO HYDROGENS
Info: LANGEVIN PISTON PRESSURE CONTROL ACTIVE
Info:        TARGET PRESSURE IS 1.01325 BAR
Info:     OSCILLATION PERIOD IS 50 FS
Info:             DECAY TIME IS 25 FS
Info:     PISTON TEMPERATURE IS 300 K
Info:       PRESSURE CONTROL IS GROUP-BASED
Info:    INITIAL STRAIN RATE IS 0 0 0
Info:       CELL FLUCTUATION IS ISOTROPIC
Info: PARTICLE MESH EWALD (PME) ACTIVE
Info: PME TOLERANCE               1e-06
Info: PME EWALD COEFFICIENT       0.348832
Info: PME INTERPOLATION ORDER     4
Info: PME GRID DIMENSIONS         40 36 36
Info: PME MAXIMUM GRID SPACING    1
Info: FULL ELECTROSTATIC EVALUATION FREQUENCY      2
Info: USING VERLET I (r-RESPA) MTS SCHEME.
Info: C1 SPLITTING OF LONG RANGE ELECTROSTATICS
Info: PLACING ATOMS IN PATCHES BY HYDROGEN GROUPS
Info: RIGID BONDS TO HYDROGEN : ALL
Info:         ERROR TOLERANCE : 1e-08
Info:          MAX ITERATIONS : 100
Info: RIGID WATER USING SETTLE ALGORITHM
Info: RANDOM NUMBER SEED     1744764405
Info: USE HYDROGEN BONDS?    NO
Info: Using AMBER format force field!
Info: AMBER PARM FILE        mobley_5816127.prmtop
Info: COORDINATE PDB         mobley_5816127.pdb
Info: Exclusions will be read from PARM file!
Info: SCNB (VDW SCALING)     2
Info: USING ARITHMETIC MEAN TO COMBINE L-J SIGMA PARAMETERS
Info: BINARY COORDINATES     mobley_5816127_min.coor
Info: SUMMARY OF PARAMETERS:
Info: 7 BONDS
Info: 8 ANGLES
Info:   8 HARMONIC
Info:   0 COSINE-BASED
Info: 10 DIHEDRAL
Info: 0 IMPROPER
Info: 0 CROSSTERM
Info: 0 VDW
Info: 21 VDW_PAIRS
Info: 0 NBTHOLE_PAIRS
Info: STRUCTURE SUMMARY:
Info: 2989 ATOMS
Info: 2988 BONDS
Info: 20 ANGLES
Info: 25 DIHEDRALS
Info: 0 IMPROPERS
Info: 0 CROSSTERMS
Info: 3026 EXCLUSIONS
Info: 13 FIXED ATOMS
Info: 2984 RIGID BONDS
Info: 8 RIGID BONDS BETWEEN FIXED ATOMS
Info: 5952 DEGREES OF FREEDOM
Info: 997 HYDROGEN GROUPS
Info: 4 ATOMS IN LARGEST HYDROGEN GROUP
Info: 997 MIGRATION GROUPS
Info: 4 ATOMS IN LARGEST MIGRATION GROUP
Info: 5 HYDROGEN GROUPS WITH ALL ATOMS FIXED
Info: TOTAL MASS = 17948 amu
Info: TOTAL CHARGE = -1.86265e-08 e
Info: MASS DENSITY = 0.675535 g/cm^3
Info: ATOM DENSITY = 0.0677485 atoms/A^3
Info: ADDED 0 IMPLICIT EXCLUSIONS
Info: NONBONDED TABLE R-SQUARED SPACING: 0.0625
Info: NONBONDED TABLE SIZE: 705 POINTS
Info: REMOVING COM VELOCITY 0.0191739 0.0429364 0.0264018
TCL: Running for 100000 steps
ETITLE: TS BOND ANGLE DIHED IMPRP ELECT VDW BOUNDARY MISC KINETIC TOTAL TEMP POTENTIAL TOTAL3 TEMPAVG PRESSURE GPRESSURE VOLUME PRESSAVG GPRESSAVG
ENERGY: 0 0.0000 0.0000 0.0000 0.0000 -13856.1038 2400.4049 0.0000 0.0000 1704.0101 -9751.6888 288.1374 -11455.6989 -9751.3715 288.1374 188.7022 223.3702 44119.0838 188.7022 223.3702
ENERGY: 100000 0.0000 0.0000 0.0000 0.0000 -14556.5599 2585.7001 0.0000 0.0000 178.3968 -11792.4630 30.1658 -11970.8598 -11791.9740 30.8710 744.1047 801.7577 28740.5274 3.4584 3.4239
TCL: Running 100000 steps at 60 kelvin.
TCL: Setting parameter langevinTemp to 60
TCL: Running for 100000 steps
ETITLE: TS BOND ANGLE DIHED IMPRP ELECT VDW BOUNDARY MISC KINETIC TOTAL TEMP POTENTIAL TOTAL3 TEMPAVG PRESSURE GPRESSURE VOLUME PRESSAVG GPRESSAVG
ENERGY: 100000 0.0000 0.0000 0.0000 0.0000 -14556.5599 2585.7001 0.0000 0.0000 178.3092 -11792.5506 30.1510 -11970.8598 -11792.3041 30.1510 751.7999 801.8395 28740.5274 751.7999 801.8395
ENERGY: 200000 0.0000 0.0000 0.0000 0.0000 -14332.6940 2435.3655 0.0000 0.0000 350.1714 -11547.1571 59.2118 -11897.3285 -11545.7541 60.0343 -305.6691 -251.5252 29019.4313 3.8147 3.8222
TCL: Running 100000 steps at 90 kelvin.
TCL: Setting parameter langevinTemp to 90
TCL: Running for 100000 steps
ETITLE: TS BOND ANGLE DIHED IMPRP ELECT VDW BOUNDARY MISC KINETIC TOTAL TEMP POTENTIAL TOTAL3 TEMPAVG PRESSURE GPRESSURE VOLUME PRESSAVG GPRESSAVG
ENERGY: 200000 0.0000 0.0000 0.0000 0.0000 -14332.6940 2435.3655 0.0000 0.0000 349.9967 -11547.3318 59.1822 -11897.3285 -11546.6837 59.1822 -314.4153 -251.1531 29019.4313 -314.4153 -251.1531
ENERGY: 300000 0.0000 0.0000 0.0000 0.0000 -14148.5215 2364.3067 0.0000 0.0000 522.0751 -11262.1398 88.2796 -11784.2149 -11260.8228 90.0522 -706.4199 -659.3219 29426.4930 4.7770 4.7529
TCL: Running 100000 steps at 120 kelvin.
TCL: Setting parameter langevinTemp to 120
TCL: Running for 100000 steps
ETITLE: TS BOND ANGLE DIHED IMPRP ELECT VDW BOUNDARY MISC KINETIC TOTAL TEMP POTENTIAL TOTAL3 TEMPAVG PRESSURE GPRESSURE VOLUME PRESSAVG GPRESSAVG
ENERGY: 300000 0.0000 0.0000 0.0000 0.0000 -14148.5215 2364.3067 0.0000 0.0000 521.8187 -11262.3962 88.2363 -11784.2149 -11261.2709 88.2363 -702.9653 -659.8455 29426.4930 -702.9653 -659.8455
ENERGY: 400000 0.0000 0.0000 0.0000 0.0000 -14161.0239 2462.4021 0.0000 0.0000 717.5195 -10981.1023 121.3280 -11698.6219 -10980.2750 119.9411 652.8995 671.6118 29088.5641 4.1174 4.3237
TCL: Running 100000 steps at 150 kelvin.
TCL: Setting parameter langevinTemp to 150
TCL: Running for 100000 steps
ETITLE: TS BOND ANGLE DIHED IMPRP ELECT VDW BOUNDARY MISC KINETIC TOTAL TEMP POTENTIAL TOTAL3 TEMPAVG PRESSURE GPRESSURE VOLUME PRESSAVG GPRESSAVG
ENERGY: 400000 0.0000 0.0000 0.0000 0.0000 -14161.0239 2462.4021 0.0000 0.0000 717.1519 -10981.4700 121.2659 -11698.6219 -10979.8862 121.2659 630.4187 671.0194 29088.5641 630.4187 671.0194
ENERGY: 500000 0.0000 0.0000 0.0000 0.0000 -13619.6708 2170.8122 0.0000 0.0000 862.6315 -10586.2271 145.8656 -11448.8586 -10585.2204 150.0093 -964.7258 -962.4004 29626.0918 4.4303 4.4519
TCL: Running 100000 steps at 180 kelvin.
TCL: Setting parameter langevinTemp to 180
TCL: Running for 100000 steps
ETITLE: TS BOND ANGLE DIHED IMPRP ELECT VDW BOUNDARY MISC KINETIC TOTAL TEMP POTENTIAL TOTAL3 TEMPAVG PRESSURE GPRESSURE VOLUME PRESSAVG GPRESSAVG
ENERGY: 500000 0.0000 0.0000 0.0000 0.0000 -13619.6708 2170.8122 0.0000 0.0000 862.1786 -10586.6800 145.7890 -11448.8586 -10584.4362 145.7890 -1016.7548 -964.3276 29626.0918 -1016.7548 -964.3276
ENERGY: 600000 0.0000 0.0000 0.0000 0.0000 -13410.0052 2186.2531 0.0000 0.0000 1041.8210 -10181.9311 176.1654 -11223.7521 -10180.3598 179.4979 58.3899 102.5322 29339.4237 3.4384 3.4344
TCL: Running 100000 steps at 210 kelvin.
TCL: Setting parameter langevinTemp to 210
TCL: Running for 100000 steps
ETITLE: TS BOND ANGLE DIHED IMPRP ELECT VDW BOUNDARY MISC KINETIC TOTAL TEMP POTENTIAL TOTAL3 TEMPAVG PRESSURE GPRESSURE VOLUME PRESSAVG GPRESSAVG
ENERGY: 600000 0.0000 0.0000 0.0000 0.0000 -13410.0052 2186.2531 0.0000 0.0000 1041.2999 -10182.4522 176.0773 -11223.7521 -10180.7514 176.0773 36.6355 102.5740 29339.4237 36.6355 102.5740
ENERGY: 700000 0.0000 0.0000 0.0000 0.0000 -12564.7572 1852.8819 0.0000 0.0000 1256.7846 -9455.0908 212.5144 -10711.8753 -9451.3371 209.7594 -617.9178 -556.1629 29349.8597 4.3120 4.2872
TCL: Running 100000 steps at 240 kelvin.
TCL: Setting parameter langevinTemp to 240
TCL: Running for 100000 steps
ETITLE: TS BOND ANGLE DIHED IMPRP ELECT VDW BOUNDARY MISC KINETIC TOTAL TEMP POTENTIAL TOTAL3 TEMPAVG PRESSURE GPRESSURE VOLUME PRESSAVG GPRESSAVG
ENERGY: 700000 0.0000 0.0000 0.0000 0.0000 -12564.7572 1852.8819 0.0000 0.0000 1256.1308 -9455.7445 212.4038 -10711.8753 -9453.6573 212.4038 -653.3556 -555.8065 29349.8597 -653.3556 -555.8065
ENERGY: 800000 0.0000 0.0000 0.0000 0.0000 -11914.9617 1679.3604 0.0000 0.0000 1433.9159 -8801.6854 242.4662 -10235.6013 -8799.1876 240.0739 -292.5697 -220.5905 29312.7198 3.4413 3.5514
TCL: Running 100000 steps at 270 kelvin.
TCL: Setting parameter langevinTemp to 270
TCL: Running for 100000 steps
ETITLE: TS BOND ANGLE DIHED IMPRP ELECT VDW BOUNDARY MISC KINETIC TOTAL TEMP POTENTIAL TOTAL3 TEMPAVG PRESSURE GPRESSURE VOLUME PRESSAVG GPRESSAVG
ENERGY: 800000 0.0000 0.0000 0.0000 0.0000 -11914.9617 1679.3604 0.0000 0.0000 1433.1941 -8802.4072 242.3441 -10235.6013 -8800.1696 242.3441 -323.7417 -222.0021 29312.7198 -323.7417 -222.0021
ENERGY: 900000 0.0000 0.0000 0.0000 0.0000 -11442.5204 1584.0809 0.0000 0.0000 1554.8112 -8303.6283 262.9088 -9858.4395 -8300.3973 269.6015 -365.9464 -236.0684 30447.0024 2.5449 2.4088
TCL: Running 1000000 steps at 300 kelvin.
TCL: Setting parameter langevinTemp to 300
TCL: Running for 1000000 steps
ETITLE: TS BOND ANGLE DIHED IMPRP ELECT VDW BOUNDARY MISC KINETIC TOTAL TEMP POTENTIAL TOTAL3 TEMPAVG PRESSURE GPRESSURE VOLUME PRESSAVG GPRESSAVG
ENERGY: 900000 0.0000 0.0000 0.0000 0.0000 -11442.5204 1584.0809 0.0000 0.0000 1554.0349 -8304.4046 262.7775 -9858.4395 -8301.5664 262.7775 -316.8909 -236.7832 30447.0024 -316.8909 -236.7832
ENERGY: 1100000 0.0000 0.0000 0.0000 0.0000 -10863.8231 1439.8054 0.0000 0.0000 1844.7532 -7579.2646 311.9362 -9424.0177 -7576.9909 300.8095 294.0662 397.1983 30114.9045 3.0214 3.0680
ENERGY: 1300000 0.0000 0.0000 0.0000 0.0000 -10852.9115 1399.8796 0.0000 0.0000 1802.2537 -7650.7782 304.7498 -9453.0319 -7645.2963 299.9065 -448.4350 -370.7929 30651.9153 2.6562 2.6718
ENERGY: 1500000 0.0000 0.0000 0.0000 0.0000 -10878.1647 1442.0541 0.0000 0.0000 1827.3720 -7608.7386 308.9971 -9436.1106 -7609.3506 300.4423 -128.2797 48.5801 30552.5873 2.2676 2.3011
ENERGY: 1700000 0.0000 0.0000 0.0000 0.0000 -11040.8975 1522.6696 0.0000 0.0000 1771.7591 -7746.4688 299.5933 -9518.2279 -7742.8307 300.6512 302.8909 383.3878 30548.8179 3.5923 3.5536
ENERGY: 1900000 0.0000 0.0000 0.0000 0.0000 -10944.9768 1475.7122 0.0000 0.0000 1741.0693 -7728.1952 294.4039 -9469.2646 -7726.5817 299.8916 229.1185 263.1437 30377.2973 3.3936 3.3523
TCL: Exiting due to exit command.
