Info: SIMULATION PARAMETERS:
Info: TIMESTEP               2
Info: NUMBER OF STEPS        0
Info: STEPS PER CYCLE        10
Info: PERIODIC CELL BASIS 1  39.546 0 0
Info: PERIODIC CELL BASIS 2  0 34.26 0
Info: PERIODIC CELL BASIS 3  0 0 33.088
Info: PERIODIC CELL CENTER   0 0 0
Info: WRAPPING WATERS AROUND PERIODIC BOUNDARIES ON OUTPUT.
Info: WRAPPING ALL CLUSTERS AROUND PERIODIC BOUNDARIES ON OUTPUT.
Info: FIRST LDB TIMESTEP     50
Info: LAST LDB TIMESTEP     -1
Info: HOM BACKGROUND SCALING 1
Info: PME BACKGROUND SCALING 1
Info: MIN ATOMS PER PATCH    40
Info: EMPTY PATCH LOAD       40 ATOMS
Info: INITIAL TEMPERATURE    300
Info: CENTER OF MASS MOVING INITIALLY? NO
Info: DIELECTRIC             1
Info: EXCLUDE                SCALED ONE-FOUR
Info: 1-4 ELECTROSTATICS SCALED BY 0.833333
Info: MODIFIED 1-4 VDW PARAMETERS WILL BE USED
Info: DCD FILENAME           mobley_1417007_equil.dcd
Info: DCD FREQUENCY          100000
Info: DCD FIRST STEP         100000
Info: DCD FILE WILL CONTAIN UNIT CELL DATA
Info: XST FILENAME           mobley_1417007_equil.xst
Info: XST FREQUENCY          100000
Info: NO VELOCITY DCD OUTPUT
Info: NO FORCE DCD OUTPUT
Info: OUTPUT FILENAME        mobley_1417007_equil
Info: BINARY OUTPUT FILES WILL BE USED
Info: RESTART FILENAME       mobley_1417007_equil.restart
Info: RESTART FREQUENCY      100000
Info: BINARY RESTART FILES WILL BE USED
Info: CUTOFF                 9
Info: PAIRLIST DISTANCE      11
Info: PAIRLIST SHRINK RATE   0.01
Info: PAIRLIST GROW RATE     0.01
Info: PAIRLIST TRIGGER       0.3
Info: PAIRLISTS PER CYCLE    2
Info: PAIRLISTS ENABLED
Info: MARGIN                 8
Info: HYDROGEN GROUP CUTOFF  2.5
Info: PATCH DIMENSION        21.5
Info: ENERGY OUTPUT STEPS    100000
Info: ENERGY EVALUATION STEPS    100000
Info: OUTPUT ENERGY PRECISION 4
Info: CROSSTERM ENERGY INCLUDED IN DIHEDRAL
Info: TIMING OUTPUT STEPS    1000000
Info: PRESSURE OUTPUT STEPS  100000
Info: FIXED ATOMS ACTIVE
Info: LANGEVIN DYNAMICS ACTIVE
Info: LANGEVIN TEMPERATURE   30
Info: LANGEVIN USING BBK INTEGRATOR
Info: LANGEVIN DAMPING COEFFICIENT IS 1 INVERSE PS
Info: LANGEVIN DYNAMICS APPLIED TO HYDROGENS
Info: LANGEVIN PISTON PRESSURE CONTROL ACTIVE
Info:        TARGET PRESSURE IS 1.01325 BAR
Info:     OSCILLATION PERIOD IS 50 FS
Info:             DECAY TIME IS 25 FS
Info:     PISTON TEMPERATURE IS 300 K
Info:       PRESSURE CONTROL IS GROUP-BASED
Info:    INITIAL STRAIN RATE IS 0 0 0
Info:       CELL FLUCTUATION IS ISOTROPIC
Info: PARTICLE MESH EWALD (PME) ACTIVE
Info: PME TOLERANCE               1e-06
Info: PME EWALD COEFFICIENT       0.348832
Info: PME INTERPOLATION ORDER     4
Info: PME GRID DIMENSIONS         40 36 36
Info: PME MAXIMUM GRID SPACING    1
Info: FULL ELECTROSTATIC EVALUATION FREQUENCY      2
Info: USING VERLET I (r-RESPA) MTS SCHEME.
Info: C1 SPLITTING OF LONG RANGE ELECTROSTATICS
Info: PLACING ATOMS IN PATCHES BY HYDROGEN GROUPS
Info: RIGID BONDS TO HYDROGEN : ALL
Info:         ERROR TOLERANCE : 1e-08
Info:          MAX ITERATIONS : 100
Info: RIGID WATER USING SETTLE ALGORITHM
Info: RANDOM NUMBER SEED     1744762681
Info: USE HYDROGEN BONDS?    NO
Info: Using AMBER format force field!
Info: AMBER PARM FILE        mobley_1417007.prmtop
Info: COORDINATE PDB         mobley_1417007.pdb
Info: Exclusions will be read from PARM file!
Info: SCNB (VDW SCALING)     2
Info: USING ARITHMETIC MEAN TO COMBINE L-J SIGMA PARAMETERS
Info: BINARY COORDINATES     mobley_1417007_min.coor
Info: SUMMARY OF PARAMETERS:
Info: 13 BONDS
Info: 18 ANGLES
Info:   18 HARMONIC
Info:   0 COSINE-BASED
Info: 21 DIHEDRAL
Info: 0 IMPROPER
Info: 0 CROSSTERM
Info: 0 VDW
Info: 55 VDW_PAIRS
Info: 0 NBTHOLE_PAIRS
Info: STRUCTURE SUMMARY:
Info: 2985 ATOMS
Info: 2986 BONDS
Info: 46 ANGLES
Info: 92 DIHEDRALS
Info: 0 IMPROPERS
Info: 0 CROSSTERMS
Info: 3092 EXCLUSIONS
Info: 24 FIXED ATOMS
Info: 2969 RIGID BONDS
Info: 8 RIGID BONDS BETWEEN FIXED ATOMS
Info: 5922 DEGREES OF FREEDOM
Info: 1003 HYDROGEN GROUPS
Info: 3 ATOMS IN LARGEST HYDROGEN GROUP
Info: 1003 MIGRATION GROUPS
Info: 3 ATOMS IN LARGEST MIGRATION GROUP
Info: 16 HYDROGEN GROUPS WITH ALL ATOMS FIXED
Info: TOTAL MASS = 18082.4 amu
Info: TOTAL CHARGE = -9.99868e-05 e
Info: MASS DENSITY = 0.669814 g/cm^3
Info: ATOM DENSITY = 0.0665861 atoms/A^3
Info: ADDED 0 IMPLICIT EXCLUSIONS
Info: NONBONDED TABLE R-SQUARED SPACING: 0.0625
Info: NONBONDED TABLE SIZE: 705 POINTS
Info: REMOVING COM VELOCITY -0.0156452 0.0326937 -0.0309865
TCL: Running for 100000 steps
ETITLE: TS BOND ANGLE DIHED IMPRP ELECT VDW BOUNDARY MISC KINETIC TOTAL TEMP POTENTIAL TOTAL3 TEMPAVG PRESSURE GPRESSURE VOLUME PRESSAVG GPRESSAVG
ENERGY: 0 0.0000 0.0000 0.0000 0.0000 -13821.3242 2389.5217 0.0000 0.0000 1735.6590 -9696.1435 294.9758 -11431.8025 -9695.8157 294.9758 382.0221 408.6722 44829.1431 382.0221 408.6722
ENERGY: 100000 0.0000 0.0000 0.0000 0.0000 -14462.6791 2480.8499 0.0000 0.0000 165.5462 -11816.2830 28.1346 -11981.8292 -11815.8944 30.8968 133.2532 215.7244 28963.1861 4.5499 4.4940
TCL: Running 100000 steps at 60 kelvin.
TCL: Setting parameter langevinTemp to 60
TCL: Running for 100000 steps
ETITLE: TS BOND ANGLE DIHED IMPRP ELECT VDW BOUNDARY MISC KINETIC TOTAL TEMP POTENTIAL TOTAL3 TEMPAVG PRESSURE GPRESSURE VOLUME PRESSAVG GPRESSAVG
ENERGY: 100000 0.0000 0.0000 0.0000 0.0000 -14462.6791 2480.8499 0.0000 0.0000 165.4614 -11816.3678 28.1202 -11981.8292 -11816.0543 28.1202 154.7149 215.6211 28963.1861 154.7149 215.6211
ENERGY: 200000 0.0000 0.0000 0.0000 0.0000 -14405.4803 2499.2546 0.0000 0.0000 353.0600 -11553.1657 60.0027 -11906.2257 -11552.6111 59.7831 672.3666 747.4195 28816.3299 3.6104 3.6705
TCL: Running 100000 steps at 90 kelvin.
TCL: Setting parameter langevinTemp to 90
TCL: Running for 100000 steps
ETITLE: TS BOND ANGLE DIHED IMPRP ELECT VDW BOUNDARY MISC KINETIC TOTAL TEMP POTENTIAL TOTAL3 TEMPAVG PRESSURE GPRESSURE VOLUME PRESSAVG GPRESSAVG
ENERGY: 200000 0.0000 0.0000 0.0000 0.0000 -14405.4803 2499.2546 0.0000 0.0000 352.8821 -11553.3436 59.9724 -11906.2257 -11552.6917 59.9724 687.9919 747.3385 28816.3299 687.9919 747.3385
ENERGY: 300000 0.0000 0.0000 0.0000 0.0000 -14316.2914 2482.6487 0.0000 0.0000 535.1017 -11298.5410 90.9407 -11833.6427 -11297.6939 89.7750 860.8325 923.2255 28738.0832 3.7820 3.9181
TCL: Running 100000 steps at 120 kelvin.
TCL: Setting parameter langevinTemp to 120
TCL: Running for 100000 steps
ETITLE: TS BOND ANGLE DIHED IMPRP ELECT VDW BOUNDARY MISC KINETIC TOTAL TEMP POTENTIAL TOTAL3 TEMPAVG PRESSURE GPRESSURE VOLUME PRESSAVG GPRESSAVG
ENERGY: 300000 0.0000 0.0000 0.0000 0.0000 -14316.2914 2482.6487 0.0000 0.0000 534.8305 -11298.8122 90.8946 -11833.6427 -11297.8857 90.8946 862.8365 922.8584 28738.0832 862.8365 922.8584
ENERGY: 400000 0.0000 0.0000 0.0000 0.0000 -14131.7087 2415.3002 0.0000 0.0000 696.8058 -11019.6027 118.4224 -11716.4085 -11018.4448 119.8234 608.6479 641.3411 28956.7949 2.6003 2.6390
TCL: Running 100000 steps at 150 kelvin.
TCL: Setting parameter langevinTemp to 150
TCL: Running for 100000 steps
ETITLE: TS BOND ANGLE DIHED IMPRP ELECT VDW BOUNDARY MISC KINETIC TOTAL TEMP POTENTIAL TOTAL3 TEMPAVG PRESSURE GPRESSURE VOLUME PRESSAVG GPRESSAVG
ENERGY: 400000 0.0000 0.0000 0.0000 0.0000 -14131.7087 2415.3002 0.0000 0.0000 696.4304 -11019.9781 118.3586 -11716.4085 -11018.7395 118.3586 587.7223 641.0021 28956.7949 587.7223 641.0021
ENERGY: 500000 0.0000 0.0000 0.0000 0.0000 -13902.0090 2385.9820 0.0000 0.0000 875.6217 -10640.4052 148.8122 -11516.0269 -10638.6820 149.7453 1160.2610 1179.0861 28929.3239 3.3658 3.3533
TCL: Running 100000 steps at 180 kelvin.
TCL: Setting parameter langevinTemp to 180
TCL: Running for 100000 steps
ETITLE: TS BOND ANGLE DIHED IMPRP ELECT VDW BOUNDARY MISC KINETIC TOTAL TEMP POTENTIAL TOTAL3 TEMPAVG PRESSURE GPRESSURE VOLUME PRESSAVG GPRESSAVG
ENERGY: 500000 0.0000 0.0000 0.0000 0.0000 -13902.0090 2385.9820 0.0000 0.0000 875.1794 -10640.8475 148.7370 -11516.0269 -10639.3136 148.7370 1125.7962 1178.6922 28929.3239 1125.7962 1178.6922
ENERGY: 600000 0.0000 0.0000 0.0000 0.0000 -13359.5306 2149.1064 0.0000 0.0000 1064.7578 -10145.6665 180.9559 -11210.4242 -10143.0364 179.7095 101.5026 158.7096 29336.7507 2.7447 2.7325
TCL: Running 100000 steps at 210 kelvin.
TCL: Setting parameter langevinTemp to 210
TCL: Running for 100000 steps
ETITLE: TS BOND ANGLE DIHED IMPRP ELECT VDW BOUNDARY MISC KINETIC TOTAL TEMP POTENTIAL TOTAL3 TEMPAVG PRESSURE GPRESSURE VOLUME PRESSAVG GPRESSAVG
ENERGY: 600000 0.0000 0.0000 0.0000 0.0000 -13359.5306 2149.1064 0.0000 0.0000 1064.2223 -10146.2019 180.8649 -11210.4242 -10144.1441 180.8649 103.4764 159.5240 29336.7507 103.4764 159.5240
ENERGY: 700000 0.0000 0.0000 0.0000 0.0000 -12662.4388 1907.1561 0.0000 0.0000 1194.9853 -9560.2974 203.0881 -10755.2828 -9556.3285 209.8102 -156.9041 -84.1062 29497.6064 4.0736 3.9843
TCL: Running 100000 steps at 240 kelvin.
TCL: Setting parameter langevinTemp to 240
TCL: Running for 100000 steps
ETITLE: TS BOND ANGLE DIHED IMPRP ELECT VDW BOUNDARY MISC KINETIC TOTAL TEMP POTENTIAL TOTAL3 TEMPAVG PRESSURE GPRESSURE VOLUME PRESSAVG GPRESSAVG
ENERGY: 700000 0.0000 0.0000 0.0000 0.0000 -12662.4388 1907.1561 0.0000 0.0000 1194.3744 -9560.9083 202.9843 -10755.2828 -9559.4362 202.9843 -174.9489 -82.0180 29497.6064 -174.9489 -82.0180
ENERGY: 800000 0.0000 0.0000 0.0000 0.0000 -12000.6794 1712.2678 0.0000 0.0000 1400.7262 -8887.6854 238.0539 -10288.4116 -8883.9831 240.3980 -1.0873 106.1603 29503.4114 4.3121 4.2642
TCL: Running 100000 steps at 270 kelvin.
TCL: Setting parameter langevinTemp to 270
TCL: Running for 100000 steps
ETITLE: TS BOND ANGLE DIHED IMPRP ELECT VDW BOUNDARY MISC KINETIC TOTAL TEMP POTENTIAL TOTAL3 TEMPAVG PRESSURE GPRESSURE VOLUME PRESSAVG GPRESSAVG
ENERGY: 800000 0.0000 0.0000 0.0000 0.0000 -12000.6794 1712.2678 0.0000 0.0000 1400.0150 -8888.3966 237.9330 -10288.4116 -8886.5299 237.9330 4.9082 106.8747 29503.4114 4.9082 106.8747
ENERGY: 900000 0.0000 0.0000 0.0000 0.0000 -11356.5994 1497.1036 0.0000 0.0000 1600.6019 -8258.8939 272.0228 -9859.4958 -8254.7945 269.9858 -657.2298 -561.8550 30335.9138 4.2733 4.1969
TCL: Running 1000000 steps at 300 kelvin.
TCL: Setting parameter langevinTemp to 300
TCL: Running for 1000000 steps
ETITLE: TS BOND ANGLE DIHED IMPRP ELECT VDW BOUNDARY MISC KINETIC TOTAL TEMP POTENTIAL TOTAL3 TEMPAVG PRESSURE GPRESSURE VOLUME PRESSAVG GPRESSAVG
ENERGY: 900000 0.0000 0.0000 0.0000 0.0000 -11356.5994 1497.1036 0.0000 0.0000 1599.8350 -8259.6608 271.8925 -9859.4958 -8256.7349 271.8925 -642.4413 -562.1078 30335.9138 -642.4413 -562.1078
ENERGY: 1100000 0.0000 0.0000 0.0000 0.0000 -10983.4326 1457.8078 0.0000 0.0000 1765.9585 -7759.6663 300.1252 -9525.6247 -7755.5460 299.9578 -108.9840 -27.7902 30811.4294 3.0539 3.3176
ENERGY: 1300000 0.0000 0.0000 0.0000 0.0000 -10812.0668 1380.8306 0.0000 0.0000 1795.3727 -7635.8636 305.1242 -9431.2363 -7632.5019 300.6890 -214.0426 -161.4946 30741.4829 2.0585 1.8326
ENERGY: 1500000 0.0000 0.0000 0.0000 0.0000 -10924.2938 1470.1277 0.0000 0.0000 1805.5657 -7648.6003 306.8565 -9454.1660 -7645.1984 300.1871 584.5316 620.1659 30551.3995 2.3520 2.2718
ENERGY: 1700000 0.0000 0.0000 0.0000 0.0000 -10818.3576 1366.7363 0.0000 0.0000 1758.8795 -7692.7419 298.9221 -9451.6213 -7687.8443 300.1084 -545.8655 -398.9873 30885.4839 1.7780 1.6840
ENERGY: 1900000 0.0000 0.0000 0.0000 0.0000 -10958.3221 1421.5344 0.0000 0.0000 1792.3264 -7744.4613 304.6064 -9536.7877 -7740.7419 300.1995 -184.2239 2.5375 30498.1007 2.5483 2.4994
TCL: Exiting due to exit command.
