Info: SIMULATION PARAMETERS:
Info: TIMESTEP               2
Info: NUMBER OF STEPS        0
Info: STEPS PER CYCLE        10
Info: PERIODIC CELL BASIS 1  37.435 0 0
Info: PERIODIC CELL BASIS 2  0 34.26 0
Info: PERIODIC CELL BASIS 3  0 0 33.876
Info: PERIODIC CELL CENTER   0 0 0
Info: WRAPPING WATERS AROUND PERIODIC BOUNDARIES ON OUTPUT.
Info: WRAPPING ALL CLUSTERS AROUND PERIODIC BOUNDARIES ON OUTPUT.
Info: FIRST LDB TIMESTEP     50
Info: LAST LDB TIMESTEP     -1
Info: HOM BACKGROUND SCALING 1
Info: PME BACKGROUND SCALING 1
Info: MIN ATOMS PER PATCH    40
Info: EMPTY PATCH LOAD       40 ATOMS
Info: INITIAL TEMPERATURE    300
Info: CENTER OF MASS MOVING INITIALLY? NO
Info: DIELECTRIC             1
Info: EXCLUDE                SCALED ONE-FOUR
Info: 1-4 ELECTROSTATICS SCALED BY 0.833333
Info: MODIFIED 1-4 VDW PARAMETERS WILL BE USED
Info: DCD FILENAME           mobley_9653690_equil.dcd
Info: DCD FREQUENCY          100000
Info: DCD FIRST STEP         100000
Info: DCD FILE WILL CONTAIN UNIT CELL DATA
Info: XST FILENAME           mobley_9653690_equil.xst
Info: XST FREQUENCY          100000
Info: NO VELOCITY DCD OUTPUT
Info: NO FORCE DCD OUTPUT
Info: OUTPUT FILENAME        mobley_9653690_equil
Info: BINARY OUTPUT FILES WILL BE USED
Info: RESTART FILENAME       mobley_9653690_equil.restart
Info: RESTART FREQUENCY      100000
Info: BINARY RESTART FILES WILL BE USED
Info: CUTOFF                 9
Info: PAIRLIST DISTANCE      11
Info: PAIRLIST SHRINK RATE   0.01
Info: PAIRLIST GROW RATE     0.01
Info: PAIRLIST TRIGGER       0.3
Info: PAIRLISTS PER CYCLE    2
Info: PAIRLISTS ENABLED
Info: MARGIN                 8
Info: HYDROGEN GROUP CUTOFF  2.5
Info: PATCH DIMENSION        21.5
Info: ENERGY OUTPUT STEPS    100000
Info: ENERGY EVALUATION STEPS    100000
Info: OUTPUT ENERGY PRECISION 4
Info: CROSSTERM ENERGY INCLUDED IN DIHEDRAL
Info: TIMING OUTPUT STEPS    1000000
Info: PRESSURE OUTPUT STEPS  100000
Info: FIXED ATOMS ACTIVE
Info: LANGEVIN DYNAMICS ACTIVE
Info: LANGEVIN TEMPERATURE   30
Info: LANGEVIN USING BBK INTEGRATOR
Info: LANGEVIN DAMPING COEFFICIENT IS 1 INVERSE PS
Info: LANGEVIN DYNAMICS APPLIED TO HYDROGENS
Info: LANGEVIN PISTON PRESSURE CONTROL ACTIVE
Info:        TARGET PRESSURE IS 1.01325 BAR
Info:     OSCILLATION PERIOD IS 50 FS
Info:             DECAY TIME IS 25 FS
Info:     PISTON TEMPERATURE IS 300 K
Info:       PRESSURE CONTROL IS GROUP-BASED
Info:    INITIAL STRAIN RATE IS 0 0 0
Info:       CELL FLUCTUATION IS ISOTROPIC
Info: PARTICLE MESH EWALD (PME) ACTIVE
Info: PME TOLERANCE               1e-06
Info: PME EWALD COEFFICIENT       0.348832
Info: PME INTERPOLATION ORDER     4
Info: PME GRID DIMENSIONS         40 36 36
Info: PME MAXIMUM GRID SPACING    1
Info: FULL ELECTROSTATIC EVALUATION FREQUENCY      2
Info: USING VERLET I (r-RESPA) MTS SCHEME.
Info: C1 SPLITTING OF LONG RANGE ELECTROSTATICS
Info: PLACING ATOMS IN PATCHES BY HYDROGEN GROUPS
Info: RIGID BONDS TO HYDROGEN : ALL
Info:         ERROR TOLERANCE : 1e-08
Info:          MAX ITERATIONS : 100
Info: RIGID WATER USING SETTLE ALGORITHM
Info: RANDOM NUMBER SEED     1744763097
Info: USE HYDROGEN BONDS?    NO
Info: Using AMBER format force field!
Info: AMBER PARM FILE        mobley_9653690.prmtop
Info: COORDINATE PDB         mobley_9653690.pdb
Info: Exclusions will be read from PARM file!
Info: SCNB (VDW SCALING)     2
Info: USING ARITHMETIC MEAN TO COMBINE L-J SIGMA PARAMETERS
Info: BINARY COORDINATES     mobley_9653690_min.coor
Info: SUMMARY OF PARAMETERS:
Info: 10 BONDS
Info: 16 ANGLES
Info:   16 HARMONIC
Info:   0 COSINE-BASED
Info: 15 DIHEDRAL
Info: 0 IMPROPER
Info: 0 CROSSTERM
Info: 0 VDW
Info: 36 VDW_PAIRS
Info: 0 NBTHOLE_PAIRS
Info: STRUCTURE SUMMARY:
Info: 2928 ATOMS
Info: 2928 BONDS
Info: 49 ANGLES
Info: 97 DIHEDRALS
Info: 0 IMPROPERS
Info: 0 CROSSTERMS
Info: 3042 EXCLUSIONS
Info: 27 FIXED ATOMS
Info: 2917 RIGID BONDS
Info: 16 RIGID BONDS BETWEEN FIXED ATOMS
Info: 5802 DEGREES OF FREEDOM
Info: 978 HYDROGEN GROUPS
Info: 4 ATOMS IN LARGEST HYDROGEN GROUP
Info: 978 MIGRATION GROUPS
Info: 4 ATOMS IN LARGEST MIGRATION GROUP
Info: 11 HYDROGEN GROUPS WITH ALL ATOMS FIXED
Info: TOTAL MASS = 17573.7 amu
Info: TOTAL CHARGE = -3.72529e-09 e
Info: MASS DENSITY = 0.671684 g/cm^3
Info: ATOM DENSITY = 0.0673928 atoms/A^3
Info: ADDED 0 IMPLICIT EXCLUSIONS
Info: NONBONDED TABLE R-SQUARED SPACING: 0.0625
Info: NONBONDED TABLE SIZE: 705 POINTS
Info: REMOVING COM VELOCITY -0.10216 -0.105302 -0.0975292
TCL: Running for 100000 steps
ETITLE: TS BOND ANGLE DIHED IMPRP ELECT VDW BOUNDARY MISC KINETIC TOTAL TEMP POTENTIAL TOTAL3 TEMPAVG PRESSURE GPRESSURE VOLUME PRESSAVG GPRESSAVG
ENERGY: 0 0.0000 0.0000 0.0000 0.0000 -13499.6903 2349.7680 0.0000 0.0000 1757.6317 -9392.2906 304.8881 -11149.9222 -9391.9574 304.8881 104.0622 139.5331 43446.7525 104.0622 139.5331
ENERGY: 100000 0.0000 0.0000 0.0000 0.0000 -13996.8053 2404.7769 0.0000 0.0000 171.8702 -11420.1581 29.8135 -11592.0284 -11419.8026 30.8649 -277.0906 -228.5994 29257.0102 4.0996 4.0853
TCL: Running 100000 steps at 60 kelvin.
TCL: Setting parameter langevinTemp to 60
TCL: Running for 100000 steps
ETITLE: TS BOND ANGLE DIHED IMPRP ELECT VDW BOUNDARY MISC KINETIC TOTAL TEMP POTENTIAL TOTAL3 TEMPAVG PRESSURE GPRESSURE VOLUME PRESSAVG GPRESSAVG
ENERGY: 100000 0.0000 0.0000 0.0000 0.0000 -13996.8053 2404.7769 0.0000 0.0000 171.7833 -11420.2451 29.7984 -11592.0284 -11419.9131 29.7984 -287.3053 -228.7130 29257.0102 -287.3053 -228.7130
ENERGY: 200000 0.0000 0.0000 0.0000 0.0000 -13983.1009 2412.9607 0.0000 0.0000 341.3999 -11228.7402 59.2210 -11570.1401 -11227.7458 59.8358 -124.0900 -68.7807 28875.3097 4.8111 4.7938
TCL: Running 100000 steps at 90 kelvin.
TCL: Setting parameter langevinTemp to 90
TCL: Running for 100000 steps
ETITLE: TS BOND ANGLE DIHED IMPRP ELECT VDW BOUNDARY MISC KINETIC TOTAL TEMP POTENTIAL TOTAL3 TEMPAVG PRESSURE GPRESSURE VOLUME PRESSAVG GPRESSAVG
ENERGY: 200000 0.0000 0.0000 0.0000 0.0000 -13983.1009 2412.9607 0.0000 0.0000 341.2305 -11228.9096 59.1917 -11570.1401 -11228.2368 59.1917 -123.3865 -68.7780 28875.3097 -123.3865 -68.7780
ENERGY: 300000 0.0000 0.0000 0.0000 0.0000 -13757.4191 2297.8818 0.0000 0.0000 535.1047 -10924.4326 92.8221 -11459.5372 -10922.8256 89.8573 -554.1983 -483.4860 28983.1570 2.4494 2.4448
TCL: Running 100000 steps at 120 kelvin.
TCL: Setting parameter langevinTemp to 120
TCL: Running for 100000 steps
ETITLE: TS BOND ANGLE DIHED IMPRP ELECT VDW BOUNDARY MISC KINETIC TOTAL TEMP POTENTIAL TOTAL3 TEMPAVG PRESSURE GPRESSURE VOLUME PRESSAVG GPRESSAVG
ENERGY: 300000 0.0000 0.0000 0.0000 0.0000 -13757.4191 2297.8818 0.0000 0.0000 534.8355 -10924.7017 92.7754 -11459.5372 -10923.6340 92.7754 -540.1048 -483.7061 28983.1570 -540.1048 -483.7061
ENERGY: 400000 0.0000 0.0000 0.0000 0.0000 -13538.2787 2193.8711 0.0000 0.0000 668.0722 -10676.3354 115.8874 -11344.4076 -10674.1851 119.9071 -1020.6781 -988.1040 29146.1130 2.6684 2.6874
TCL: Running 100000 steps at 150 kelvin.
TCL: Setting parameter langevinTemp to 150
TCL: Running for 100000 steps
ETITLE: TS BOND ANGLE DIHED IMPRP ELECT VDW BOUNDARY MISC KINETIC TOTAL TEMP POTENTIAL TOTAL3 TEMPAVG PRESSURE GPRESSURE VOLUME PRESSAVG GPRESSAVG
ENERGY: 400000 0.0000 0.0000 0.0000 0.0000 -13538.2787 2193.8711 0.0000 0.0000 667.7142 -10676.6935 115.8252 -11344.4076 -10675.2736 115.8252 -1052.4307 -987.5366 29146.1130 -1052.4307 -987.5366
ENERGY: 500000 0.0000 0.0000 0.0000 0.0000 -13409.4497 2231.0440 0.0000 0.0000 867.2149 -10311.1908 150.4317 -11178.4057 -10308.3798 149.9180 22.5609 81.7000 28783.6300 3.5925 3.7275
TCL: Running 100000 steps at 180 kelvin.
TCL: Setting parameter langevinTemp to 180
TCL: Running for 100000 steps
ETITLE: TS BOND ANGLE DIHED IMPRP ELECT VDW BOUNDARY MISC KINETIC TOTAL TEMP POTENTIAL TOTAL3 TEMPAVG PRESSURE GPRESSURE VOLUME PRESSAVG GPRESSAVG
ENERGY: 500000 0.0000 0.0000 0.0000 0.0000 -13409.4497 2231.0440 0.0000 0.0000 866.7957 -10311.6100 150.3590 -11178.4057 -10310.1336 150.3590 13.8955 83.7070 28783.6300 13.8955 83.7070
ENERGY: 600000 0.0000 0.0000 0.0000 0.0000 -13072.8785 2137.5053 0.0000 0.0000 1031.6858 -9903.6875 178.9617 -10935.3733 -9902.2661 179.8498 186.9746 266.5984 28757.5804 2.9485 2.8568
TCL: Running 100000 steps at 210 kelvin.
TCL: Setting parameter langevinTemp to 210
TCL: Running for 100000 steps
ETITLE: TS BOND ANGLE DIHED IMPRP ELECT VDW BOUNDARY MISC KINETIC TOTAL TEMP POTENTIAL TOTAL3 TEMPAVG PRESSURE GPRESSURE VOLUME PRESSAVG GPRESSAVG
ENERGY: 600000 0.0000 0.0000 0.0000 0.0000 -13072.8785 2137.5053 0.0000 0.0000 1031.1610 -9904.2123 178.8707 -10935.3733 -9902.7774 178.8707 201.2538 267.0082 28757.5804 201.2538 267.0082
ENERGY: 700000 0.0000 0.0000 0.0000 0.0000 -12225.2255 1787.0282 0.0000 0.0000 1214.5587 -9223.6386 210.6838 -10438.1973 -9219.4679 209.7739 -814.7854 -733.3283 28960.5323 4.8927 4.7714
TCL: Running 100000 steps at 240 kelvin.
TCL: Setting parameter langevinTemp to 240
TCL: Running for 100000 steps
ETITLE: TS BOND ANGLE DIHED IMPRP ELECT VDW BOUNDARY MISC KINETIC TOTAL TEMP POTENTIAL TOTAL3 TEMPAVG PRESSURE GPRESSURE VOLUME PRESSAVG GPRESSAVG
ENERGY: 700000 0.0000 0.0000 0.0000 0.0000 -12225.2255 1787.0282 0.0000 0.0000 1213.9591 -9224.2382 210.5798 -10438.1973 -9221.6328 210.5798 -803.5846 -731.6396 28960.5323 -803.5846 -731.6396
ENERGY: 800000 0.0000 0.0000 0.0000 0.0000 -11716.5100 1665.1254 0.0000 0.0000 1376.2304 -8675.1542 238.7282 -10051.3846 -8671.6780 239.6586 -451.5873 -287.6306 28745.6082 3.4017 3.4595
TCL: Running 100000 steps at 270 kelvin.
TCL: Setting parameter langevinTemp to 270
TCL: Running for 100000 steps
ETITLE: TS BOND ANGLE DIHED IMPRP ELECT VDW BOUNDARY MISC KINETIC TOTAL TEMP POTENTIAL TOTAL3 TEMPAVG PRESSURE GPRESSURE VOLUME PRESSAVG GPRESSAVG
ENERGY: 800000 0.0000 0.0000 0.0000 0.0000 -11716.5100 1665.1254 0.0000 0.0000 1375.5336 -8675.8510 238.6074 -10051.3846 -8673.0179 238.6074 -379.5021 -288.8919 28745.6082 -379.5021 -288.8919
ENERGY: 900000 0.0000 0.0000 0.0000 0.0000 -11209.5274 1576.4698 0.0000 0.0000 1515.0987 -8117.9589 262.8171 -9633.0576 -8115.4333 270.0517 209.0183 270.1460 29240.0176 3.3960 3.2592
TCL: Running 1000000 steps at 300 kelvin.
TCL: Setting parameter langevinTemp to 300
TCL: Running for 1000000 steps
ETITLE: TS BOND ANGLE DIHED IMPRP ELECT VDW BOUNDARY MISC KINETIC TOTAL TEMP POTENTIAL TOTAL3 TEMPAVG PRESSURE GPRESSURE VOLUME PRESSAVG GPRESSAVG
ENERGY: 900000 0.0000 0.0000 0.0000 0.0000 -11209.5274 1576.4698 0.0000 0.0000 1514.3104 -8118.7472 262.6803 -9633.0576 -8116.5402 262.6803 204.4337 269.8137 29240.0176 204.4337 269.8137
ENERGY: 1100000 0.0000 0.0000 0.0000 0.0000 -10592.5553 1381.0081 0.0000 0.0000 1734.8296 -7476.7176 300.9328 -9211.5472 -7471.5700 300.2680 -475.4909 -420.7346 30598.2117 3.1488 3.1544
ENERGY: 1300000 0.0000 0.0000 0.0000 0.0000 -10598.9579 1360.0176 0.0000 0.0000 1751.9361 -7487.0041 303.9002 -9238.9403 -7483.9342 300.2993 -798.8973 -627.2053 30640.9878 3.6514 3.6167
ENERGY: 1500000 0.0000 0.0000 0.0000 0.0000 -10531.2156 1364.2260 0.0000 0.0000 1734.8593 -7432.1303 300.9379 -9166.9896 -7428.5289 300.3353 -119.3885 -44.7804 29921.2067 3.5824 3.4865
ENERGY: 1700000 0.0000 0.0000 0.0000 0.0000 -10576.3690 1387.1237 0.0000 0.0000 1800.5227 -7388.7226 312.3282 -9189.2453 -7384.9584 300.1272 -381.1653 -239.2802 30483.1594 4.1022 4.0047
ENERGY: 1900000 0.0000 0.0000 0.0000 0.0000 -10499.7869 1295.9380 0.0000 0.0000 1730.7444 -7473.1045 300.2241 -9203.8489 -7472.3659 300.0289 -895.4028 -857.6819 30290.3329 3.8458 3.7405
TCL: Exiting due to exit command.
