Info: SIMULATION PARAMETERS:
Info: TIMESTEP               2
Info: NUMBER OF STEPS        0
Info: STEPS PER CYCLE        10
Info: PERIODIC CELL BASIS 1  37.435 0 0
Info: PERIODIC CELL BASIS 2  0 35.411 0
Info: PERIODIC CELL BASIS 3  0 0 31.855
Info: PERIODIC CELL CENTER   0 0 0
Info: WRAPPING WATERS AROUND PERIODIC BOUNDARIES ON OUTPUT.
Info: WRAPPING ALL CLUSTERS AROUND PERIODIC BOUNDARIES ON OUTPUT.
Info: FIRST LDB TIMESTEP     50
Info: LAST LDB TIMESTEP     -1
Info: HOM BACKGROUND SCALING 1
Info: PME BACKGROUND SCALING 1
Info: MIN ATOMS PER PATCH    40
Info: EMPTY PATCH LOAD       40 ATOMS
Info: INITIAL TEMPERATURE    300
Info: CENTER OF MASS MOVING INITIALLY? NO
Info: DIELECTRIC             1
Info: EXCLUDE                SCALED ONE-FOUR
Info: 1-4 ELECTROSTATICS SCALED BY 0.833333
Info: MODIFIED 1-4 VDW PARAMETERS WILL BE USED
Info: DCD FILENAME           mobley_6353617_equil.dcd
Info: DCD FREQUENCY          100000
Info: DCD FIRST STEP         100000
Info: DCD FILE WILL CONTAIN UNIT CELL DATA
Info: XST FILENAME           mobley_6353617_equil.xst
Info: XST FREQUENCY          100000
Info: NO VELOCITY DCD OUTPUT
Info: NO FORCE DCD OUTPUT
Info: OUTPUT FILENAME        mobley_6353617_equil
Info: BINARY OUTPUT FILES WILL BE USED
Info: RESTART FILENAME       mobley_6353617_equil.restart
Info: RESTART FREQUENCY      100000
Info: BINARY RESTART FILES WILL BE USED
Info: CUTOFF                 9
Info: PAIRLIST DISTANCE      11
Info: PAIRLIST SHRINK RATE   0.01
Info: PAIRLIST GROW RATE     0.01
Info: PAIRLIST TRIGGER       0.3
Info: PAIRLISTS PER CYCLE    2
Info: PAIRLISTS ENABLED
Info: MARGIN                 8
Info: HYDROGEN GROUP CUTOFF  2.5
Info: PATCH DIMENSION        21.5
Info: ENERGY OUTPUT STEPS    100000
Info: ENERGY EVALUATION STEPS    100000
Info: OUTPUT ENERGY PRECISION 4
Info: CROSSTERM ENERGY INCLUDED IN DIHEDRAL
Info: TIMING OUTPUT STEPS    1000000
Info: PRESSURE OUTPUT STEPS  100000
Info: FIXED ATOMS ACTIVE
Info: LANGEVIN DYNAMICS ACTIVE
Info: LANGEVIN TEMPERATURE   30
Info: LANGEVIN USING BBK INTEGRATOR
Info: LANGEVIN DAMPING COEFFICIENT IS 1 INVERSE PS
Info: LANGEVIN DYNAMICS APPLIED TO HYDROGENS
Info: LANGEVIN PISTON PRESSURE CONTROL ACTIVE
Info:        TARGET PRESSURE IS 1.01325 BAR
Info:     OSCILLATION PERIOD IS 50 FS
Info:             DECAY TIME IS 25 FS
Info:     PISTON TEMPERATURE IS 300 K
Info:       PRESSURE CONTROL IS GROUP-BASED
Info:    INITIAL STRAIN RATE IS 0 0 0
Info:       CELL FLUCTUATION IS ISOTROPIC
Info: PARTICLE MESH EWALD (PME) ACTIVE
Info: PME TOLERANCE               1e-06
Info: PME EWALD COEFFICIENT       0.348832
Info: PME INTERPOLATION ORDER     4
Info: PME GRID DIMENSIONS         40 36 32
Info: PME MAXIMUM GRID SPACING    1
Info: FULL ELECTROSTATIC EVALUATION FREQUENCY      2
Info: USING VERLET I (r-RESPA) MTS SCHEME.
Info: C1 SPLITTING OF LONG RANGE ELECTROSTATICS
Info: PLACING ATOMS IN PATCHES BY HYDROGEN GROUPS
Info: RIGID BONDS TO HYDROGEN : ALL
Info:         ERROR TOLERANCE : 1e-08
Info:          MAX ITERATIONS : 100
Info: RIGID WATER USING SETTLE ALGORITHM
Info: RANDOM NUMBER SEED     1744721311
Info: USE HYDROGEN BONDS?    NO
Info: Using AMBER format force field!
Info: AMBER PARM FILE        mobley_6353617.prmtop
Info: COORDINATE PDB         mobley_6353617.pdb
Info: Exclusions will be read from PARM file!
Info: SCNB (VDW SCALING)     2
Info: USING ARITHMETIC MEAN TO COMBINE L-J SIGMA PARAMETERS
Info: BINARY COORDINATES     mobley_6353617_min.coor
Info: SUMMARY OF PARAMETERS:
Info: 10 BONDS
Info: 12 ANGLES
Info:   12 HARMONIC
Info:   0 COSINE-BASED
Info: 9 DIHEDRAL
Info: 0 IMPROPER
Info: 0 CROSSTERM
Info: 0 VDW
Info: 45 VDW_PAIRS
Info: 0 NBTHOLE_PAIRS
Info: STRUCTURE SUMMARY:
Info: 2926 ATOMS
Info: 2926 BONDS
Info: 25 ANGLES
Info: 42 DIHEDRALS
Info: 0 IMPROPERS
Info: 0 CROSSTERMS
Info: 2978 EXCLUSIONS
Info: 16 FIXED ATOMS
Info: 2917 RIGID BONDS
Info: 7 RIGID BONDS BETWEEN FIXED ATOMS
Info: 5820 DEGREES OF FREEDOM
Info: 979 HYDROGEN GROUPS
Info: 4 ATOMS IN LARGEST HYDROGEN GROUP
Info: 979 MIGRATION GROUPS
Info: 4 ATOMS IN LARGEST MIGRATION GROUP
Info: 9 HYDROGEN GROUPS WITH ALL ATOMS FIXED
Info: TOTAL MASS = 17596.7 amu
Info: TOTAL CHARGE = 1.30385e-08 e
Info: MASS DENSITY = 0.691984 g/cm^3
Info: ATOM DENSITY = 0.0692916 atoms/A^3
Info: ADDED 0 IMPLICIT EXCLUSIONS
Info: NONBONDED TABLE R-SQUARED SPACING: 0.0625
Info: NONBONDED TABLE SIZE: 705 POINTS
Info: REMOVING COM VELOCITY 0.0495097 -0.0828524 0.00458858
TCL: Running for 100000 steps
ETITLE: TS BOND ANGLE DIHED IMPRP ELECT VDW BOUNDARY MISC KINETIC TOTAL TEMP POTENTIAL TOTAL3 TEMPAVG PRESSURE GPRESSURE VOLUME PRESSAVG GPRESSAVG
ENERGY: 0 0.0000 0.0000 0.0000 0.0000 -13648.6465 2350.9469 0.0000 0.0000 1730.3158 -9567.3837 299.2215 -11297.6995 -9567.0447 299.2215 189.1148 216.0263 42227.3316 189.1148 216.0263
ENERGY: 100000 0.0000 0.0000 0.0000 0.0000 -14197.7992 2488.8577 0.0000 0.0000 168.0817 -11540.8598 29.0662 -11708.9414 -11540.3376 30.8632 105.5372 143.2567 29492.4597 3.4359 3.4300
TCL: Running 100000 steps at 60 kelvin.
TCL: Setting parameter langevinTemp to 60
TCL: Running for 100000 steps
ETITLE: TS BOND ANGLE DIHED IMPRP ELECT VDW BOUNDARY MISC KINETIC TOTAL TEMP POTENTIAL TOTAL3 TEMPAVG PRESSURE GPRESSURE VOLUME PRESSAVG GPRESSAVG
ENERGY: 100000 0.0000 0.0000 0.0000 0.0000 -14197.7992 2488.8577 0.0000 0.0000 167.9953 -11540.9461 29.0512 -11708.9414 -11540.7070 29.0512 103.7695 143.1116 29492.4597 103.7695 143.1116
ENERGY: 200000 0.0000 0.0000 0.0000 0.0000 -14131.9760 2461.3810 0.0000 0.0000 345.2713 -11325.3237 59.7074 -11670.5950 -11324.6080 60.0427 341.8598 421.2536 28849.3777 5.4181 5.3325
TCL: Running 100000 steps at 90 kelvin.
TCL: Setting parameter langevinTemp to 90
TCL: Running for 100000 steps
ETITLE: TS BOND ANGLE DIHED IMPRP ELECT VDW BOUNDARY MISC KINETIC TOTAL TEMP POTENTIAL TOTAL3 TEMPAVG PRESSURE GPRESSURE VOLUME PRESSAVG GPRESSAVG
ENERGY: 200000 0.0000 0.0000 0.0000 0.0000 -14131.9760 2461.3810 0.0000 0.0000 345.0964 -11325.4986 59.6771 -11670.5950 -11324.7924 59.6771 360.3459 421.5700 28849.3777 360.3459 421.5700
ENERGY: 300000 0.0000 0.0000 0.0000 0.0000 -13986.1665 2403.8563 0.0000 0.0000 528.9051 -11053.4051 91.4629 -11582.3102 -11051.9295 90.1295 260.6843 320.3930 28815.7529 1.8972 1.7920
TCL: Running 100000 steps at 120 kelvin.
TCL: Setting parameter langevinTemp to 120
TCL: Running for 100000 steps
ETITLE: TS BOND ANGLE DIHED IMPRP ELECT VDW BOUNDARY MISC KINETIC TOTAL TEMP POTENTIAL TOTAL3 TEMPAVG PRESSURE GPRESSURE VOLUME PRESSAVG GPRESSAVG
ENERGY: 300000 0.0000 0.0000 0.0000 0.0000 -13986.1665 2403.8563 0.0000 0.0000 528.6472 -11053.6630 91.4183 -11582.3102 -11052.5349 91.4183 255.9771 320.5494 28815.7529 255.9771 320.5494
ENERGY: 400000 0.0000 0.0000 0.0000 0.0000 -13605.9402 2186.9082 0.0000 0.0000 690.9156 -10728.1165 119.4792 -11419.0320 -10726.8580 120.0712 -1025.7985 -940.7062 29017.4867 4.5189 4.4775
TCL: Running 100000 steps at 150 kelvin.
TCL: Setting parameter langevinTemp to 150
TCL: Running for 100000 steps
ETITLE: TS BOND ANGLE DIHED IMPRP ELECT VDW BOUNDARY MISC KINETIC TOTAL TEMP POTENTIAL TOTAL3 TEMPAVG PRESSURE GPRESSURE VOLUME PRESSAVG GPRESSAVG
ENERGY: 400000 0.0000 0.0000 0.0000 0.0000 -13605.9402 2186.9082 0.0000 0.0000 690.5666 -10728.4654 119.4189 -11419.0320 -10727.0494 119.4189 -1003.9932 -941.2479 29017.4867 -1003.9932 -941.2479
ENERGY: 500000 0.0000 0.0000 0.0000 0.0000 -13536.1917 2218.3897 0.0000 0.0000 854.6669 -10463.1350 147.7966 -11317.8020 -10461.2290 149.7733 -214.2456 -197.1004 28613.2882 4.9069 4.9541
TCL: Running 100000 steps at 180 kelvin.
TCL: Setting parameter langevinTemp to 180
TCL: Running for 100000 steps
ETITLE: TS BOND ANGLE DIHED IMPRP ELECT VDW BOUNDARY MISC KINETIC TOTAL TEMP POTENTIAL TOTAL3 TEMPAVG PRESSURE GPRESSURE VOLUME PRESSAVG GPRESSAVG
ENERGY: 500000 0.0000 0.0000 0.0000 0.0000 -13536.1917 2218.3897 0.0000 0.0000 854.2337 -10463.5683 147.7216 -11317.8020 -10462.1721 147.7216 -247.6888 -197.2611 28613.2882 -247.6888 -197.2611
ENERGY: 600000 0.0000 0.0000 0.0000 0.0000 -13143.1955 2121.6624 0.0000 0.0000 1046.0910 -9975.4422 180.8993 -11021.5332 -9973.5360 179.7329 -87.5392 24.1000 28834.5350 3.7930 3.8418
TCL: Running 100000 steps at 210 kelvin.
TCL: Setting parameter langevinTemp to 210
TCL: Running for 100000 steps
ETITLE: TS BOND ANGLE DIHED IMPRP ELECT VDW BOUNDARY MISC KINETIC TOTAL TEMP POTENTIAL TOTAL3 TEMPAVG PRESSURE GPRESSURE VOLUME PRESSAVG GPRESSAVG
ENERGY: 600000 0.0000 0.0000 0.0000 0.0000 -13143.1955 2121.6624 0.0000 0.0000 1045.5637 -9975.9695 180.8081 -11021.5332 -9973.8803 180.8081 -41.6377 23.4110 28834.5350 -41.6377 23.4110
ENERGY: 700000 0.0000 0.0000 0.0000 0.0000 -12570.9245 1981.2300 0.0000 0.0000 1262.0284 -9327.6661 218.2411 -10589.6945 -9324.6492 209.8619 769.7089 875.4459 28286.3083 4.3947 4.2961
TCL: Running 100000 steps at 240 kelvin.
TCL: Setting parameter langevinTemp to 240
TCL: Running for 100000 steps
ETITLE: TS BOND ANGLE DIHED IMPRP ELECT VDW BOUNDARY MISC KINETIC TOTAL TEMP POTENTIAL TOTAL3 TEMPAVG PRESSURE GPRESSURE VOLUME PRESSAVG GPRESSAVG
ENERGY: 700000 0.0000 0.0000 0.0000 0.0000 -12570.9245 1981.2300 0.0000 0.0000 1261.4011 -9328.2934 218.1326 -10589.6945 -9325.9945 218.1326 786.9644 874.1845 28286.3083 786.9644 874.1845
ENERGY: 800000 0.0000 0.0000 0.0000 0.0000 -11753.5392 1695.2957 0.0000 0.0000 1413.1933 -8645.0502 244.3819 -10058.2435 -8642.8730 239.7814 -78.6248 41.8210 29034.1184 3.4831 3.2931
TCL: Running 100000 steps at 270 kelvin.
TCL: Setting parameter langevinTemp to 270
TCL: Running for 100000 steps
ETITLE: TS BOND ANGLE DIHED IMPRP ELECT VDW BOUNDARY MISC KINETIC TOTAL TEMP POTENTIAL TOTAL3 TEMPAVG PRESSURE GPRESSURE VOLUME PRESSAVG GPRESSAVG
ENERGY: 800000 0.0000 0.0000 0.0000 0.0000 -11753.5392 1695.2957 0.0000 0.0000 1412.5174 -8645.7261 244.2650 -10058.2435 -8642.8054 244.2650 -33.2511 40.8325 29034.1184 -33.2511 40.8325
ENERGY: 900000 0.0000 0.0000 0.0000 0.0000 -11179.7654 1488.5795 0.0000 0.0000 1621.8356 -8069.3504 280.4621 -9691.1859 -8066.2740 269.6723 -372.4164 -234.2775 29293.1770 3.0663 3.0153
TCL: Running 1000000 steps at 300 kelvin.
TCL: Setting parameter langevinTemp to 300
TCL: Running for 1000000 steps
ETITLE: TS BOND ANGLE DIHED IMPRP ELECT VDW BOUNDARY MISC KINETIC TOTAL TEMP POTENTIAL TOTAL3 TEMPAVG PRESSURE GPRESSURE VOLUME PRESSAVG GPRESSAVG
ENERGY: 900000 0.0000 0.0000 0.0000 0.0000 -11179.7654 1488.5795 0.0000 0.0000 1621.0535 -8070.1324 280.3269 -9691.1859 -8067.7389 280.3269 -333.7654 -235.1788 29293.1770 -333.7654 -235.1788
ENERGY: 1100000 0.0000 0.0000 0.0000 0.0000 -10786.7472 1494.9576 0.0000 0.0000 1694.6281 -7597.1615 293.0500 -9291.7896 -7593.7165 300.2403 581.2130 666.5620 29985.7541 4.2346 4.2308
ENERGY: 1300000 0.0000 0.0000 0.0000 0.0000 -10704.2361 1491.7946 0.0000 0.0000 1689.1284 -7523.3132 292.0990 -9212.4415 -7517.3962 300.5436 545.7868 650.8616 30336.4236 3.7849 3.7004
ENERGY: 1500000 0.0000 0.0000 0.0000 0.0000 -10595.0618 1281.8655 0.0000 0.0000 1746.6794 -7566.5168 302.0512 -9313.1963 -7560.9747 300.5123 -1295.1998 -1225.1325 30427.9432 3.4009 3.5057
ENERGY: 1700000 0.0000 0.0000 0.0000 0.0000 -10700.2741 1468.4373 0.0000 0.0000 1719.1681 -7512.6687 297.2937 -9231.8368 -7509.9557 299.5993 471.3717 574.4906 30027.5289 4.4877 4.3894
ENERGY: 1900000 0.0000 0.0000 0.0000 0.0000 -10836.9196 1537.7991 0.0000 0.0000 1776.2116 -7522.9089 307.1582 -9299.1205 -7520.8589 300.3666 851.8641 986.5588 30130.6284 2.6025 2.5811
TCL: Exiting due to exit command.
