Info: SIMULATION PARAMETERS:
Info: TIMESTEP               2
Info: NUMBER OF STEPS        0
Info: STEPS PER CYCLE        10
Info: PERIODIC CELL BASIS 1  36.592 0 0
Info: PERIODIC CELL BASIS 2  0 35.411 0
Info: PERIODIC CELL BASIS 3  0 0 33.876
Info: PERIODIC CELL CENTER   0 0 0
Info: WRAPPING WATERS AROUND PERIODIC BOUNDARIES ON OUTPUT.
Info: WRAPPING ALL CLUSTERS AROUND PERIODIC BOUNDARIES ON OUTPUT.
Info: FIRST LDB TIMESTEP     50
Info: LAST LDB TIMESTEP     -1
Info: HOM BACKGROUND SCALING 1
Info: PME BACKGROUND SCALING 1
Info: MIN ATOMS PER PATCH    40
Info: EMPTY PATCH LOAD       40 ATOMS
Info: INITIAL TEMPERATURE    300
Info: CENTER OF MASS MOVING INITIALLY? NO
Info: DIELECTRIC             1
Info: EXCLUDE                SCALED ONE-FOUR
Info: 1-4 ELECTROSTATICS SCALED BY 0.833333
Info: MODIFIED 1-4 VDW PARAMETERS WILL BE USED
Info: DCD FILENAME           mobley_2023925_equil.dcd
Info: DCD FREQUENCY          100000
Info: DCD FIRST STEP         100000
Info: DCD FILE WILL CONTAIN UNIT CELL DATA
Info: XST FILENAME           mobley_2023925_equil.xst
Info: XST FREQUENCY          100000
Info: NO VELOCITY DCD OUTPUT
Info: NO FORCE DCD OUTPUT
Info: OUTPUT FILENAME        mobley_2023925_equil
Info: BINARY OUTPUT FILES WILL BE USED
Info: RESTART FILENAME       mobley_2023925_equil.restart
Info: RESTART FREQUENCY      100000
Info: BINARY RESTART FILES WILL BE USED
Info: CUTOFF                 9
Info: PAIRLIST DISTANCE      11
Info: PAIRLIST SHRINK RATE   0.01
Info: PAIRLIST GROW RATE     0.01
Info: PAIRLIST TRIGGER       0.3
Info: PAIRLISTS PER CYCLE    2
Info: PAIRLISTS ENABLED
Info: MARGIN                 8
Info: HYDROGEN GROUP CUTOFF  2.5
Info: PATCH DIMENSION        21.5
Info: ENERGY OUTPUT STEPS    100000
Info: ENERGY EVALUATION STEPS    100000
Info: OUTPUT ENERGY PRECISION 4
Info: CROSSTERM ENERGY INCLUDED IN DIHEDRAL
Info: TIMING OUTPUT STEPS    1000000
Info: PRESSURE OUTPUT STEPS  100000
Info: FIXED ATOMS ACTIVE
Info: LANGEVIN DYNAMICS ACTIVE
Info: LANGEVIN TEMPERATURE   30
Info: LANGEVIN USING BBK INTEGRATOR
Info: LANGEVIN DAMPING COEFFICIENT IS 1 INVERSE PS
Info: LANGEVIN DYNAMICS APPLIED TO HYDROGENS
Info: LANGEVIN PISTON PRESSURE CONTROL ACTIVE
Info:        TARGET PRESSURE IS 1.01325 BAR
Info:     OSCILLATION PERIOD IS 50 FS
Info:             DECAY TIME IS 25 FS
Info:     PISTON TEMPERATURE IS 300 K
Info:       PRESSURE CONTROL IS GROUP-BASED
Info:    INITIAL STRAIN RATE IS 0 0 0
Info:       CELL FLUCTUATION IS ISOTROPIC
Info: PARTICLE MESH EWALD (PME) ACTIVE
Info: PME TOLERANCE               1e-06
Info: PME EWALD COEFFICIENT       0.348832
Info: PME INTERPOLATION ORDER     4
Info: PME GRID DIMENSIONS         40 36 36
Info: PME MAXIMUM GRID SPACING    1
Info: FULL ELECTROSTATIC EVALUATION FREQUENCY      2
Info: USING VERLET I (r-RESPA) MTS SCHEME.
Info: C1 SPLITTING OF LONG RANGE ELECTROSTATICS
Info: PLACING ATOMS IN PATCHES BY HYDROGEN GROUPS
Info: RIGID BONDS TO HYDROGEN : ALL
Info:         ERROR TOLERANCE : 1e-08
Info:          MAX ITERATIONS : 100
Info: RIGID WATER USING SETTLE ALGORITHM
Info: RANDOM NUMBER SEED     1744764236
Info: USE HYDROGEN BONDS?    NO
Info: Using AMBER format force field!
Info: AMBER PARM FILE        mobley_2023925.prmtop
Info: COORDINATE PDB         mobley_2023925.pdb
Info: Exclusions will be read from PARM file!
Info: SCNB (VDW SCALING)     2
Info: USING ARITHMETIC MEAN TO COMBINE L-J SIGMA PARAMETERS
Info: BINARY COORDINATES     mobley_2023925_min.coor
Info: SUMMARY OF PARAMETERS:
Info: 8 BONDS
Info: 12 ANGLES
Info:   12 HARMONIC
Info:   0 COSINE-BASED
Info: 4 DIHEDRAL
Info: 0 IMPROPER
Info: 0 CROSSTERM
Info: 0 VDW
Info: 36 VDW_PAIRS
Info: 0 NBTHOLE_PAIRS
Info: STRUCTURE SUMMARY:
Info: 2940 ATOMS
Info: 2939 BONDS
Info: 19 ANGLES
Info: 16 DIHEDRALS
Info: 0 IMPROPERS
Info: 0 CROSSTERMS
Info: 2973 EXCLUSIONS
Info: 12 FIXED ATOMS
Info: 2930 RIGID BONDS
Info: 2 RIGID BONDS BETWEEN FIXED ATOMS
Info: 5856 DEGREES OF FREEDOM
Info: 986 HYDROGEN GROUPS
Info: 3 ATOMS IN LARGEST HYDROGEN GROUP
Info: 986 MIGRATION GROUPS
Info: 3 ATOMS IN LARGEST MIGRATION GROUP
Info: 10 HYDROGEN GROUPS WITH ALL ATOMS FIXED
Info: TOTAL MASS = 17768.1 amu
Info: TOTAL CHARGE = 9.99942e-05 e
Info: MASS DENSITY = 0.672178 g/cm^3
Info: ATOM DENSITY = 0.0669778 atoms/A^3
Info: ADDED 0 IMPLICIT EXCLUSIONS
Info: NONBONDED TABLE R-SQUARED SPACING: 0.0625
Info: NONBONDED TABLE SIZE: 705 POINTS
Info: REMOVING COM VELOCITY -0.0634841 0.0681314 0.0627574
TCL: Running for 100000 steps
ETITLE: TS BOND ANGLE DIHED IMPRP ELECT VDW BOUNDARY MISC KINETIC TOTAL TEMP POTENTIAL TOTAL3 TEMPAVG PRESSURE GPRESSURE VOLUME PRESSAVG GPRESSAVG
ENERGY: 0 0.0000 0.0000 0.0000 0.0000 -13712.9927 2382.2910 0.0000 0.0000 1784.3764 -9546.3252 306.6732 -11330.7017 -9545.9637 306.6732 314.9669 351.7136 43895.1425 314.9669 351.7136
ENERGY: 100000 0.0000 0.0000 0.0000 0.0000 -14278.8994 2480.9387 0.0000 0.0000 177.1662 -11620.7945 30.4488 -11797.9606 -11620.5818 30.9175 -158.4089 -106.1355 29193.5232 4.8115 4.8350
TCL: Running 100000 steps at 60 kelvin.
TCL: Setting parameter langevinTemp to 60
TCL: Running for 100000 steps
ETITLE: TS BOND ANGLE DIHED IMPRP ELECT VDW BOUNDARY MISC KINETIC TOTAL TEMP POTENTIAL TOTAL3 TEMPAVG PRESSURE GPRESSURE VOLUME PRESSAVG GPRESSAVG
ENERGY: 100000 0.0000 0.0000 0.0000 0.0000 -14278.8994 2480.9387 0.0000 0.0000 177.0772 -11620.8834 30.4335 -11797.9606 -11620.4719 30.4335 -155.6915 -106.5719 29193.5232 -155.6915 -106.5719
ENERGY: 200000 0.0000 0.0000 0.0000 0.0000 -14131.0390 2433.4094 0.0000 0.0000 349.2724 -11348.3571 60.0280 -11697.6295 -11347.6162 59.9177 14.0660 95.3096 28861.8145 3.3180 3.3916
TCL: Running 100000 steps at 90 kelvin.
TCL: Setting parameter langevinTemp to 90
TCL: Running for 100000 steps
ETITLE: TS BOND ANGLE DIHED IMPRP ELECT VDW BOUNDARY MISC KINETIC TOTAL TEMP POTENTIAL TOTAL3 TEMPAVG PRESSURE GPRESSURE VOLUME PRESSAVG GPRESSAVG
ENERGY: 200000 0.0000 0.0000 0.0000 0.0000 -14131.0390 2433.4094 0.0000 0.0000 349.1018 -11348.5277 59.9986 -11697.6295 -11348.0716 59.9986 32.4222 95.6132 28861.8145 32.4222 95.6132
ENERGY: 300000 0.0000 0.0000 0.0000 0.0000 -14061.2587 2396.9045 0.0000 0.0000 508.2223 -11156.1319 87.3460 -11664.3541 -11154.8414 90.1046 -190.5056 -129.6392 28930.1727 4.9877 5.0442
TCL: Running 100000 steps at 120 kelvin.
TCL: Setting parameter langevinTemp to 120
TCL: Running for 100000 steps
ETITLE: TS BOND ANGLE DIHED IMPRP ELECT VDW BOUNDARY MISC KINETIC TOTAL TEMP POTENTIAL TOTAL3 TEMPAVG PRESSURE GPRESSURE VOLUME PRESSAVG GPRESSAVG
ENERGY: 300000 0.0000 0.0000 0.0000 0.0000 -14061.2587 2396.9045 0.0000 0.0000 507.9729 -11156.3812 87.3031 -11664.3542 -11155.2225 87.3031 -179.6023 -129.8654 28930.1727 -179.6023 -129.8654
ENERGY: 400000 0.0000 0.0000 0.0000 0.0000 -13807.2515 2340.7208 0.0000 0.0000 694.4029 -10772.1278 119.3441 -11466.5307 -10771.0172 120.0465 22.5806 55.6984 29085.1332 4.5036 4.5235
TCL: Running 100000 steps at 150 kelvin.
TCL: Setting parameter langevinTemp to 150
TCL: Running for 100000 steps
ETITLE: TS BOND ANGLE DIHED IMPRP ELECT VDW BOUNDARY MISC KINETIC TOTAL TEMP POTENTIAL TOTAL3 TEMPAVG PRESSURE GPRESSURE VOLUME PRESSAVG GPRESSAVG
ENERGY: 400000 0.0000 0.0000 0.0000 0.0000 -13807.2515 2340.7208 0.0000 0.0000 694.0709 -10772.4598 119.2870 -11466.5307 -10771.1282 119.2870 0.0622 55.5851 29085.1332 0.0622 55.5851
ENERGY: 500000 0.0000 0.0000 0.0000 0.0000 -13610.4394 2275.9211 0.0000 0.0000 869.2672 -10465.2511 149.3973 -11334.5183 -10462.4972 149.8122 248.6257 306.0403 28775.9244 2.3422 2.3259
TCL: Running 100000 steps at 180 kelvin.
TCL: Setting parameter langevinTemp to 180
TCL: Running for 100000 steps
ETITLE: TS BOND ANGLE DIHED IMPRP ELECT VDW BOUNDARY MISC KINETIC TOTAL TEMP POTENTIAL TOTAL3 TEMPAVG PRESSURE GPRESSURE VOLUME PRESSAVG GPRESSAVG
ENERGY: 500000 0.0000 0.0000 0.0000 0.0000 -13610.4394 2275.9211 0.0000 0.0000 868.8414 -10465.6769 149.3241 -11334.5183 -10464.0727 149.3241 268.4203 306.7020 28775.9244 268.4203 306.7020
ENERGY: 600000 0.0000 0.0000 0.0000 0.0000 -13136.7413 2040.7923 0.0000 0.0000 1015.1910 -10080.7580 174.4766 -11095.9490 -10077.2597 180.2097 -601.6884 -555.4795 28490.6931 2.9323 2.8564
TCL: Running 100000 steps at 210 kelvin.
TCL: Setting parameter langevinTemp to 210
TCL: Running for 100000 steps
ETITLE: TS BOND ANGLE DIHED IMPRP ELECT VDW BOUNDARY MISC KINETIC TOTAL TEMP POTENTIAL TOTAL3 TEMPAVG PRESSURE GPRESSURE VOLUME PRESSAVG GPRESSAVG
ENERGY: 600000 0.0000 0.0000 0.0000 0.0000 -13136.7413 2040.7923 0.0000 0.0000 1014.6723 -10081.2767 174.3874 -11095.9490 -10079.2578 174.3874 -598.7433 -555.0064 28490.6931 -598.7433 -555.0064
ENERGY: 700000 0.0000 0.0000 0.0000 0.0000 -12437.0569 1841.7176 0.0000 0.0000 1229.6032 -9365.7361 211.3267 -10595.3393 -9363.6152 209.9092 -287.3004 -225.3712 28414.6785 2.5639 2.5037
TCL: Running 100000 steps at 240 kelvin.
TCL: Setting parameter langevinTemp to 240
TCL: Running for 100000 steps
ETITLE: TS BOND ANGLE DIHED IMPRP ELECT VDW BOUNDARY MISC KINETIC TOTAL TEMP POTENTIAL TOTAL3 TEMPAVG PRESSURE GPRESSURE VOLUME PRESSAVG GPRESSAVG
ENERGY: 700000 0.0000 0.0000 0.0000 0.0000 -12437.0569 1841.7176 0.0000 0.0000 1228.9989 -9366.3403 211.2228 -10595.3393 -9364.1404 211.2228 -308.6820 -226.4510 28414.6785 -308.6820 -226.4510
ENERGY: 800000 0.0000 0.0000 0.0000 0.0000 -12035.4531 1905.2573 0.0000 0.0000 1368.4406 -8761.7552 235.1881 -10130.1958 -8758.7728 239.9194 1525.1186 1614.0469 28976.7367 2.4071 2.3970
TCL: Running 100000 steps at 270 kelvin.
TCL: Setting parameter langevinTemp to 270
TCL: Running for 100000 steps
ETITLE: TS BOND ANGLE DIHED IMPRP ELECT VDW BOUNDARY MISC KINETIC TOTAL TEMP POTENTIAL TOTAL3 TEMPAVG PRESSURE GPRESSURE VOLUME PRESSAVG GPRESSAVG
ENERGY: 800000 0.0000 0.0000 0.0000 0.0000 -12035.4531 1905.2573 0.0000 0.0000 1367.7517 -8762.4441 235.0697 -10130.1958 -8761.3880 235.0697 1520.1412 1614.7535 28976.7367 1520.1412 1614.7535
ENERGY: 900000 0.0000 0.0000 0.0000 0.0000 -11163.3392 1482.7333 0.0000 0.0000 1550.5937 -8130.0122 266.4939 -9680.6059 -8125.2646 269.6221 -430.5744 -416.8899 29733.4395 4.1652 4.1855
TCL: Running 1000000 steps at 300 kelvin.
TCL: Setting parameter langevinTemp to 300
TCL: Running for 1000000 steps
ETITLE: TS BOND ANGLE DIHED IMPRP ELECT VDW BOUNDARY MISC KINETIC TOTAL TEMP POTENTIAL TOTAL3 TEMPAVG PRESSURE GPRESSURE VOLUME PRESSAVG GPRESSAVG
ENERGY: 900000 0.0000 0.0000 0.0000 0.0000 -11163.3392 1482.7333 0.0000 0.0000 1549.7990 -8130.8069 266.3574 -9680.6059 -8129.3877 266.3574 -492.9399 -416.7626 29733.4395 -492.9399 -416.7626
ENERGY: 1100000 0.0000 0.0000 0.0000 0.0000 -10824.2680 1458.4949 0.0000 0.0000 1753.6421 -7612.1309 301.3910 -9365.7730 -7608.8089 300.0841 175.7539 243.7552 30102.6552 3.3800 3.4552
ENERGY: 1300000 0.0000 0.0000 0.0000 0.0000 -10674.6847 1339.8916 0.0000 0.0000 1766.8231 -7567.9699 303.6564 -9334.7930 -7564.4547 300.4085 -1011.1436 -883.1377 30875.2425 3.3103 3.2437
ENERGY: 1500000 0.0000 0.0000 0.0000 0.0000 -10748.1366 1428.1540 0.0000 0.0000 1768.4661 -7551.5165 303.9387 -9319.9826 -7546.1208 300.2803 -132.8181 12.2262 30315.8442 4.9535 5.0123
ENERGY: 1700000 0.0000 0.0000 0.0000 0.0000 -10601.0952 1314.7415 0.0000 0.0000 1755.1124 -7531.2413 301.6437 -9286.3537 -7528.9643 300.3535 -713.1436 -670.0928 30259.1034 2.8308 2.8883
ENERGY: 1900000 0.0000 0.0000 0.0000 0.0000 -10698.9003 1450.6902 0.0000 0.0000 1735.5400 -7512.6701 298.2799 -9248.2101 -7507.1805 300.3882 183.4722 272.3367 30473.3238 3.7069 3.6847
TCL: Exiting due to exit command.
