Info: SIMULATION PARAMETERS:
Info: TIMESTEP               2
Info: NUMBER OF STEPS        0
Info: STEPS PER CYCLE        10
Info: PERIODIC CELL BASIS 1  36.592 0 0
Info: PERIODIC CELL BASIS 2  0 34.26 0
Info: PERIODIC CELL BASIS 3  0 0 34.68
Info: PERIODIC CELL CENTER   0 0 0
Info: WRAPPING WATERS AROUND PERIODIC BOUNDARIES ON OUTPUT.
Info: WRAPPING ALL CLUSTERS AROUND PERIODIC BOUNDARIES ON OUTPUT.
Info: FIRST LDB TIMESTEP     50
Info: LAST LDB TIMESTEP     -1
Info: HOM BACKGROUND SCALING 1
Info: PME BACKGROUND SCALING 1
Info: MIN ATOMS PER PATCH    40
Info: EMPTY PATCH LOAD       40 ATOMS
Info: INITIAL TEMPERATURE    300
Info: CENTER OF MASS MOVING INITIALLY? NO
Info: DIELECTRIC             1
Info: EXCLUDE                SCALED ONE-FOUR
Info: 1-4 ELECTROSTATICS SCALED BY 0.833333
Info: MODIFIED 1-4 VDW PARAMETERS WILL BE USED
Info: DCD FILENAME           mobley_9624458_equil.dcd
Info: DCD FREQUENCY          100000
Info: DCD FIRST STEP         100000
Info: DCD FILE WILL CONTAIN UNIT CELL DATA
Info: XST FILENAME           mobley_9624458_equil.xst
Info: XST FREQUENCY          100000
Info: NO VELOCITY DCD OUTPUT
Info: NO FORCE DCD OUTPUT
Info: OUTPUT FILENAME        mobley_9624458_equil
Info: BINARY OUTPUT FILES WILL BE USED
Info: RESTART FILENAME       mobley_9624458_equil.restart
Info: RESTART FREQUENCY      100000
Info: BINARY RESTART FILES WILL BE USED
Info: CUTOFF                 9
Info: PAIRLIST DISTANCE      11
Info: PAIRLIST SHRINK RATE   0.01
Info: PAIRLIST GROW RATE     0.01
Info: PAIRLIST TRIGGER       0.3
Info: PAIRLISTS PER CYCLE    2
Info: PAIRLISTS ENABLED
Info: MARGIN                 8
Info: HYDROGEN GROUP CUTOFF  2.5
Info: PATCH DIMENSION        21.5
Info: ENERGY OUTPUT STEPS    100000
Info: ENERGY EVALUATION STEPS    100000
Info: OUTPUT ENERGY PRECISION 4
Info: CROSSTERM ENERGY INCLUDED IN DIHEDRAL
Info: TIMING OUTPUT STEPS    1000000
Info: PRESSURE OUTPUT STEPS  100000
Info: FIXED ATOMS ACTIVE
Info: LANGEVIN DYNAMICS ACTIVE
Info: LANGEVIN TEMPERATURE   30
Info: LANGEVIN USING BBK INTEGRATOR
Info: LANGEVIN DAMPING COEFFICIENT IS 1 INVERSE PS
Info: LANGEVIN DYNAMICS APPLIED TO HYDROGENS
Info: LANGEVIN PISTON PRESSURE CONTROL ACTIVE
Info:        TARGET PRESSURE IS 1.01325 BAR
Info:     OSCILLATION PERIOD IS 50 FS
Info:             DECAY TIME IS 25 FS
Info:     PISTON TEMPERATURE IS 300 K
Info:       PRESSURE CONTROL IS GROUP-BASED
Info:    INITIAL STRAIN RATE IS 0 0 0
Info:       CELL FLUCTUATION IS ISOTROPIC
Info: PARTICLE MESH EWALD (PME) ACTIVE
Info: PME TOLERANCE               1e-06
Info: PME EWALD COEFFICIENT       0.348832
Info: PME INTERPOLATION ORDER     4
Info: PME GRID DIMENSIONS         40 36 36
Info: PME MAXIMUM GRID SPACING    1
Info: FULL ELECTROSTATIC EVALUATION FREQUENCY      2
Info: USING VERLET I (r-RESPA) MTS SCHEME.
Info: C1 SPLITTING OF LONG RANGE ELECTROSTATICS
Info: PLACING ATOMS IN PATCHES BY HYDROGEN GROUPS
Info: RIGID BONDS TO HYDROGEN : ALL
Info:         ERROR TOLERANCE : 1e-08
Info:          MAX ITERATIONS : 100
Info: RIGID WATER USING SETTLE ALGORITHM
Info: RANDOM NUMBER SEED     1744764712
Info: USE HYDROGEN BONDS?    NO
Info: Using AMBER format force field!
Info: AMBER PARM FILE        mobley_9624458.prmtop
Info: COORDINATE PDB         mobley_9624458.pdb
Info: Exclusions will be read from PARM file!
Info: SCNB (VDW SCALING)     2
Info: USING ARITHMETIC MEAN TO COMBINE L-J SIGMA PARAMETERS
Info: BINARY COORDINATES     mobley_9624458_min.coor
Info: SUMMARY OF PARAMETERS:
Info: 6 BONDS
Info: 7 ANGLES
Info:   7 HARMONIC
Info:   0 COSINE-BASED
Info: 3 DIHEDRAL
Info: 0 IMPROPER
Info: 0 CROSSTERM
Info: 0 VDW
Info: 21 VDW_PAIRS
Info: 0 NBTHOLE_PAIRS
Info: STRUCTURE SUMMARY:
Info: 2903 ATOMS
Info: 2902 BONDS
Info: 18 ANGLES
Info: 22 DIHEDRALS
Info: 0 IMPROPERS
Info: 0 CROSSTERMS
Info: 2938 EXCLUSIONS
Info: 11 FIXED ATOMS
Info: 2898 RIGID BONDS
Info: 6 RIGID BONDS BETWEEN FIXED ATOMS
Info: 5784 DEGREES OF FREEDOM
Info: 969 HYDROGEN GROUPS
Info: 3 ATOMS IN LARGEST HYDROGEN GROUP
Info: 969 MIGRATION GROUPS
Info: 3 ATOMS IN LARGEST MIGRATION GROUP
Info: 5 HYDROGEN GROUPS WITH ALL ATOMS FIXED
Info: TOTAL MASS = 17480.4 amu
Info: TOTAL CHARGE = 0 e
Info: MASS DENSITY = 0.667664 g/cm^3
Info: ATOM DENSITY = 0.066772 atoms/A^3
Info: ADDED 0 IMPLICIT EXCLUSIONS
Info: NONBONDED TABLE R-SQUARED SPACING: 0.0625
Info: NONBONDED TABLE SIZE: 705 POINTS
Info: REMOVING COM VELOCITY -0.0669967 -0.207275 -0.0368667
TCL: Running for 100000 steps
ETITLE: TS BOND ANGLE DIHED IMPRP ELECT VDW BOUNDARY MISC KINETIC TOTAL TEMP POTENTIAL TOTAL3 TEMPAVG PRESSURE GPRESSURE VOLUME PRESSAVG GPRESSAVG
ENERGY: 0 0.0000 0.0000 0.0000 0.0000 -13407.3158 2335.6921 0.0000 0.0000 1651.5848 -9420.0389 287.3843 -11071.6237 -9419.7372 287.3843 260.2251 299.5042 43476.3018 260.2251 299.5042
ENERGY: 100000 0.0000 0.0000 0.0000 0.0000 -13901.6516 2343.5899 0.0000 0.0000 177.1429 -11380.9189 30.8238 -11558.0618 -11380.1870 30.9024 -641.6723 -620.1061 28701.5312 3.5513 3.5716
TCL: Running 100000 steps at 60 kelvin.
TCL: Setting parameter langevinTemp to 60
TCL: Running for 100000 steps
ETITLE: TS BOND ANGLE DIHED IMPRP ELECT VDW BOUNDARY MISC KINETIC TOTAL TEMP POTENTIAL TOTAL3 TEMPAVG PRESSURE GPRESSURE VOLUME PRESSAVG GPRESSAVG
ENERGY: 100000 0.0000 0.0000 0.0000 0.0000 -13901.6516 2343.5899 0.0000 0.0000 177.0557 -11381.0060 30.8086 -11558.0618 -11380.6838 30.8086 -663.0084 -619.6593 28701.5312 -663.0084 -619.6593
ENERGY: 200000 0.0000 0.0000 0.0000 0.0000 -13909.4173 2376.5835 0.0000 0.0000 341.8009 -11191.0329 59.4751 -11532.8338 -11189.9820 59.7972 27.4116 26.6322 27931.8301 5.8190 5.8720
TCL: Running 100000 steps at 90 kelvin.
TCL: Setting parameter langevinTemp to 90
TCL: Running for 100000 steps
ETITLE: TS BOND ANGLE DIHED IMPRP ELECT VDW BOUNDARY MISC KINETIC TOTAL TEMP POTENTIAL TOTAL3 TEMPAVG PRESSURE GPRESSURE VOLUME PRESSAVG GPRESSAVG
ENERGY: 200000 0.0000 0.0000 0.0000 0.0000 -13909.4173 2376.5835 0.0000 0.0000 341.6321 -11191.2017 59.4457 -11532.8338 -11190.5907 59.4457 -10.8689 27.3189 27931.8301 -10.8689 27.3189
ENERGY: 300000 0.0000 0.0000 0.0000 0.0000 -13953.3667 2517.3796 0.0000 0.0000 514.5280 -10921.4591 89.5305 -11435.9871 -10920.5459 89.9384 1409.6763 1493.9711 28010.9305 3.8395 3.7910
TCL: Running 100000 steps at 120 kelvin.
TCL: Setting parameter langevinTemp to 120
TCL: Running for 100000 steps
ETITLE: TS BOND ANGLE DIHED IMPRP ELECT VDW BOUNDARY MISC KINETIC TOTAL TEMP POTENTIAL TOTAL3 TEMPAVG PRESSURE GPRESSURE VOLUME PRESSAVG GPRESSAVG
ENERGY: 300000 0.0000 0.0000 0.0000 0.0000 -13953.3667 2517.3796 0.0000 0.0000 514.2556 -10921.7315 89.4831 -11435.9871 -10920.9238 89.4831 1442.4208 1492.9633 28010.9305 1442.4208 1492.9633
ENERGY: 400000 0.0000 0.0000 0.0000 0.0000 -13561.2050 2258.5929 0.0000 0.0000 690.3516 -10612.2605 120.1247 -11302.6121 -10611.7394 119.9854 -273.9508 -210.0946 28361.3285 1.8368 1.8136
TCL: Running 100000 steps at 150 kelvin.
TCL: Setting parameter langevinTemp to 150
TCL: Running for 100000 steps
ETITLE: TS BOND ANGLE DIHED IMPRP ELECT VDW BOUNDARY MISC KINETIC TOTAL TEMP POTENTIAL TOTAL3 TEMPAVG PRESSURE GPRESSURE VOLUME PRESSAVG GPRESSAVG
ENERGY: 400000 0.0000 0.0000 0.0000 0.0000 -13561.2050 2258.5929 0.0000 0.0000 690.0308 -10612.5813 120.0689 -11302.6121 -10611.3729 120.0689 -277.0950 -211.7248 28361.3285 -277.0950 -211.7248
ENERGY: 500000 0.0000 0.0000 0.0000 0.0000 -13292.4594 2201.4849 0.0000 0.0000 857.8883 -10233.0862 149.2770 -11090.9745 -10230.3932 149.8260 -294.2399 -180.2349 28627.4215 2.5706 2.6570
TCL: Running 100000 steps at 180 kelvin.
TCL: Setting parameter langevinTemp to 180
TCL: Running for 100000 steps
ETITLE: TS BOND ANGLE DIHED IMPRP ELECT VDW BOUNDARY MISC KINETIC TOTAL TEMP POTENTIAL TOTAL3 TEMPAVG PRESSURE GPRESSURE VOLUME PRESSAVG GPRESSAVG
ENERGY: 500000 0.0000 0.0000 0.0000 0.0000 -13292.4594 2201.4849 0.0000 0.0000 857.4581 -10233.5165 149.2021 -11090.9745 -10231.8328 149.2021 -243.3495 -180.3596 28627.4215 -243.3495 -180.3596
ENERGY: 600000 0.0000 0.0000 0.0000 0.0000 -12806.3506 1999.6538 0.0000 0.0000 1024.5247 -9782.1720 178.2726 -10806.6968 -9779.2829 179.8578 -656.3666 -566.0202 28510.7591 4.8553 4.8078
TCL: Running 100000 steps at 210 kelvin.
TCL: Setting parameter langevinTemp to 210
TCL: Running for 100000 steps
ETITLE: TS BOND ANGLE DIHED IMPRP ELECT VDW BOUNDARY MISC KINETIC TOTAL TEMP POTENTIAL TOTAL3 TEMPAVG PRESSURE GPRESSURE VOLUME PRESSAVG GPRESSAVG
ENERGY: 600000 0.0000 0.0000 0.0000 0.0000 -12806.3506 1999.6538 0.0000 0.0000 1024.0221 -9782.6746 178.1851 -10806.6968 -9780.7756 178.1851 -635.3814 -565.6349 28510.7591 -635.3814 -565.6349
ENERGY: 700000 0.0000 0.0000 0.0000 0.0000 -12207.5617 1823.2365 0.0000 0.0000 1205.7571 -9178.5681 209.8079 -10384.3252 -9176.9230 210.1379 -211.4384 -132.6677 28046.5826 2.9563 3.0386
TCL: Running 100000 steps at 240 kelvin.
TCL: Setting parameter langevinTemp to 240
TCL: Running for 100000 steps
ETITLE: TS BOND ANGLE DIHED IMPRP ELECT VDW BOUNDARY MISC KINETIC TOTAL TEMP POTENTIAL TOTAL3 TEMPAVG PRESSURE GPRESSURE VOLUME PRESSAVG GPRESSAVG
ENERGY: 700000 0.0000 0.0000 0.0000 0.0000 -12207.5617 1823.2365 0.0000 0.0000 1205.1670 -9179.1582 209.7053 -10384.3252 -9176.9048 209.7053 -213.8731 -133.8353 28046.5826 -213.8731 -133.8353
ENERGY: 800000 0.0000 0.0000 0.0000 0.0000 -11566.1649 1642.4930 0.0000 0.0000 1386.3087 -8537.3631 241.2249 -9923.6719 -8534.7665 240.2905 -390.4178 -218.2550 28340.6193 3.1768 3.1863
TCL: Running 100000 steps at 270 kelvin.
TCL: Setting parameter langevinTemp to 270
TCL: Running for 100000 steps
ETITLE: TS BOND ANGLE DIHED IMPRP ELECT VDW BOUNDARY MISC KINETIC TOTAL TEMP POTENTIAL TOTAL3 TEMPAVG PRESSURE GPRESSURE VOLUME PRESSAVG GPRESSAVG
ENERGY: 800000 0.0000 0.0000 0.0000 0.0000 -11566.1649 1642.4930 0.0000 0.0000 1385.5967 -8538.0752 241.1010 -9923.6719 -8535.2453 241.1010 -311.1435 -218.8495 28340.6193 -311.1435 -218.8495
ENERGY: 900000 0.0000 0.0000 0.0000 0.0000 -11078.3460 1580.9996 0.0000 0.0000 1547.5854 -7949.7609 269.2878 -9497.3464 -7945.2520 270.1782 349.1383 485.1880 29182.2720 1.7190 1.7476
TCL: Running 1000000 steps at 300 kelvin.
TCL: Setting parameter langevinTemp to 300
TCL: Running for 1000000 steps
ETITLE: TS BOND ANGLE DIHED IMPRP ELECT VDW BOUNDARY MISC KINETIC TOTAL TEMP POTENTIAL TOTAL3 TEMPAVG PRESSURE GPRESSURE VOLUME PRESSAVG GPRESSAVG
ENERGY: 900000 0.0000 0.0000 0.0000 0.0000 -11078.3460 1580.9996 0.0000 0.0000 1546.8187 -7950.5277 269.1544 -9497.3464 -7949.0126 269.1544 382.7395 486.3110 29182.2720 382.7395 486.3110
ENERGY: 1100000 0.0000 0.0000 0.0000 0.0000 -10563.0042 1408.5100 0.0000 0.0000 1777.7911 -7376.7031 309.3448 -9154.4942 -7370.2494 301.2152 -126.2535 -111.2654 30009.1488 2.6640 2.4881
ENERGY: 1300000 0.0000 0.0000 0.0000 0.0000 -10514.2183 1361.0660 0.0000 0.0000 1688.1060 -7465.0463 293.7391 -9153.1523 -7463.6204 300.6226 -502.4493 -466.3859 30045.0168 4.3422 4.2920
ENERGY: 1500000 0.0000 0.0000 0.0000 0.0000 -10566.1487 1422.4894 0.0000 0.0000 1716.7576 -7426.9018 298.7247 -9143.6593 -7422.8191 300.3576 10.4370 108.2892 29879.2876 2.4326 2.1961
ENERGY: 1700000 0.0000 0.0000 0.0000 0.0000 -10392.6059 1305.1806 0.0000 0.0000 1723.4457 -7363.9795 299.8884 -9087.4252 -7361.2824 299.5832 -888.5849 -785.6711 29967.2524 3.0437 3.2779
ENERGY: 1900000 0.0000 0.0000 0.0000 0.0000 -10532.3206 1356.6396 0.0000 0.0000 1801.6246 -7374.0564 313.4920 -9175.6810 -7368.4598 300.3749 -789.5712 -691.6039 30162.3569 4.4141 4.2701
TCL: Exiting due to exit command.
