Info: SIMULATION PARAMETERS:
Info: TIMESTEP               2
Info: NUMBER OF STEPS        0
Info: STEPS PER CYCLE        10
Info: PERIODIC CELL BASIS 1  37.399 0 0
Info: PERIODIC CELL BASIS 2  0 36.451 0
Info: PERIODIC CELL BASIS 3  0 0 33.152
Info: PERIODIC CELL CENTER   0 0 0
Info: WRAPPING WATERS AROUND PERIODIC BOUNDARIES ON OUTPUT.
Info: WRAPPING ALL CLUSTERS AROUND PERIODIC BOUNDARIES ON OUTPUT.
Info: FIRST LDB TIMESTEP     50
Info: LAST LDB TIMESTEP     -1
Info: HOM BACKGROUND SCALING 1
Info: PME BACKGROUND SCALING 1
Info: MIN ATOMS PER PATCH    40
Info: EMPTY PATCH LOAD       40 ATOMS
Info: INITIAL TEMPERATURE    300
Info: CENTER OF MASS MOVING INITIALLY? NO
Info: DIELECTRIC             1
Info: EXCLUDE                SCALED ONE-FOUR
Info: 1-4 ELECTROSTATICS SCALED BY 0.833333
Info: MODIFIED 1-4 VDW PARAMETERS WILL BE USED
Info: DCD FILENAME           mobley_6620221_equil.dcd
Info: DCD FREQUENCY          100000
Info: DCD FIRST STEP         100000
Info: DCD FILE WILL CONTAIN UNIT CELL DATA
Info: XST FILENAME           mobley_6620221_equil.xst
Info: XST FREQUENCY          100000
Info: NO VELOCITY DCD OUTPUT
Info: NO FORCE DCD OUTPUT
Info: OUTPUT FILENAME        mobley_6620221_equil
Info: BINARY OUTPUT FILES WILL BE USED
Info: RESTART FILENAME       mobley_6620221_equil.restart
Info: RESTART FREQUENCY      100000
Info: BINARY RESTART FILES WILL BE USED
Info: CUTOFF                 9
Info: PAIRLIST DISTANCE      11
Info: PAIRLIST SHRINK RATE   0.01
Info: PAIRLIST GROW RATE     0.01
Info: PAIRLIST TRIGGER       0.3
Info: PAIRLISTS PER CYCLE    2
Info: PAIRLISTS ENABLED
Info: MARGIN                 8
Info: HYDROGEN GROUP CUTOFF  2.5
Info: PATCH DIMENSION        21.5
Info: ENERGY OUTPUT STEPS    100000
Info: ENERGY EVALUATION STEPS    100000
Info: OUTPUT ENERGY PRECISION 4
Info: CROSSTERM ENERGY INCLUDED IN DIHEDRAL
Info: TIMING OUTPUT STEPS    1000000
Info: PRESSURE OUTPUT STEPS  100000
Info: FIXED ATOMS ACTIVE
Info: LANGEVIN DYNAMICS ACTIVE
Info: LANGEVIN TEMPERATURE   30
Info: LANGEVIN USING BBK INTEGRATOR
Info: LANGEVIN DAMPING COEFFICIENT IS 1 INVERSE PS
Info: LANGEVIN DYNAMICS APPLIED TO HYDROGENS
Info: LANGEVIN PISTON PRESSURE CONTROL ACTIVE
Info:        TARGET PRESSURE IS 1.01325 BAR
Info:     OSCILLATION PERIOD IS 50 FS
Info:             DECAY TIME IS 25 FS
Info:     PISTON TEMPERATURE IS 300 K
Info:       PRESSURE CONTROL IS GROUP-BASED
Info:    INITIAL STRAIN RATE IS 0 0 0
Info:       CELL FLUCTUATION IS ISOTROPIC
Info: PARTICLE MESH EWALD (PME) ACTIVE
Info: PME TOLERANCE               1e-06
Info: PME EWALD COEFFICIENT       0.348832
Info: PME INTERPOLATION ORDER     4
Info: PME GRID DIMENSIONS         40 40 36
Info: PME MAXIMUM GRID SPACING    1
Info: FULL ELECTROSTATIC EVALUATION FREQUENCY      2
Info: USING VERLET I (r-RESPA) MTS SCHEME.
Info: C1 SPLITTING OF LONG RANGE ELECTROSTATICS
Info: PLACING ATOMS IN PATCHES BY HYDROGEN GROUPS
Info: RIGID BONDS TO HYDROGEN : ALL
Info:         ERROR TOLERANCE : 1e-08
Info:          MAX ITERATIONS : 100
Info: RIGID WATER USING SETTLE ALGORITHM
Info: RANDOM NUMBER SEED     1744763175
Info: USE HYDROGEN BONDS?    NO
Info: Using AMBER format force field!
Info: AMBER PARM FILE        mobley_6620221.prmtop
Info: COORDINATE PDB         mobley_6620221.pdb
Info: Exclusions will be read from PARM file!
Info: SCNB (VDW SCALING)     2
Info: USING ARITHMETIC MEAN TO COMBINE L-J SIGMA PARAMETERS
Info: BINARY COORDINATES     mobley_6620221_min.coor
Info: SUMMARY OF PARAMETERS:
Info: 15 BONDS
Info: 20 ANGLES
Info:   20 HARMONIC
Info:   0 COSINE-BASED
Info: 12 DIHEDRAL
Info: 0 IMPROPER
Info: 0 CROSSTERM
Info: 0 VDW
Info: 66 VDW_PAIRS
Info: 0 NBTHOLE_PAIRS
Info: STRUCTURE SUMMARY:
Info: 2956 ATOMS
Info: 2957 BONDS
Info: 56 ANGLES
Info: 93 DIHEDRALS
Info: 0 IMPROPERS
Info: 0 CROSSTERMS
Info: 3081 EXCLUSIONS
Info: 31 FIXED ATOMS
Info: 2940 RIGID BONDS
Info: 15 RIGID BONDS BETWEEN FIXED ATOMS
Info: 5850 DEGREES OF FREEDOM
Info: 991 HYDROGEN GROUPS
Info: 4 ATOMS IN LARGEST HYDROGEN GROUP
Info: 991 MIGRATION GROUPS
Info: 4 ATOMS IN LARGEST MIGRATION GROUP
Info: 16 HYDROGEN GROUPS WITH ALL ATOMS FIXED
Info: TOTAL MASS = 17786.9 amu
Info: TOTAL CHARGE = -0.000300046 e
Info: MASS DENSITY = 0.65355 g/cm^3
Info: ATOM DENSITY = 0.0654072 atoms/A^3
Info: ADDED 0 IMPLICIT EXCLUSIONS
Info: NONBONDED TABLE R-SQUARED SPACING: 0.0625
Info: NONBONDED TABLE SIZE: 705 POINTS
Info: REMOVING COM VELOCITY -0.2492 0.0303936 0.0392428
TCL: Running for 100000 steps
ETITLE: TS BOND ANGLE DIHED IMPRP ELECT VDW BOUNDARY MISC KINETIC TOTAL TEMP POTENTIAL TOTAL3 TEMPAVG PRESSURE GPRESSURE VOLUME PRESSAVG GPRESSAVG
ENERGY: 0 0.0000 0.0000 0.0000 0.0000 -13662.4510 2374.0867 0.0000 0.0000 1745.0918 -9543.2725 300.2291 -11288.3643 -9542.9365 300.2291 340.0686 369.4680 45193.8324 340.0686 369.4680
ENERGY: 100000 0.0000 0.0000 0.0000 0.0000 -14294.2549 2507.3822 0.0000 0.0000 171.7956 -11615.0771 29.5561 -11786.8727 -11614.6611 30.8662 554.5879 623.7984 29111.2631 3.4328 3.4570
TCL: Running 100000 steps at 60 kelvin.
TCL: Setting parameter langevinTemp to 60
TCL: Running for 100000 steps
ETITLE: TS BOND ANGLE DIHED IMPRP ELECT VDW BOUNDARY MISC KINETIC TOTAL TEMP POTENTIAL TOTAL3 TEMPAVG PRESSURE GPRESSURE VOLUME PRESSAVG GPRESSAVG
ENERGY: 100000 0.0000 0.0000 0.0000 0.0000 -14294.2549 2507.3822 0.0000 0.0000 171.7084 -11615.1643 29.5411 -11786.8727 -11614.8286 29.5411 576.6700 623.9131 29111.2631 576.6700 623.9131
ENERGY: 200000 0.0000 0.0000 0.0000 0.0000 -14146.8839 2402.5437 0.0000 0.0000 340.3954 -11403.9448 58.5623 -11744.3402 -11403.0052 60.0371 -29.4038 3.9204 28931.2890 4.6799 4.6410
TCL: Running 100000 steps at 90 kelvin.
TCL: Setting parameter langevinTemp to 90
TCL: Running for 100000 steps
ETITLE: TS BOND ANGLE DIHED IMPRP ELECT VDW BOUNDARY MISC KINETIC TOTAL TEMP POTENTIAL TOTAL3 TEMPAVG PRESSURE GPRESSURE VOLUME PRESSAVG GPRESSAVG
ENERGY: 200000 0.0000 0.0000 0.0000 0.0000 -14146.8839 2402.5437 0.0000 0.0000 340.2267 -11404.1135 58.5333 -11744.3402 -11403.5242 58.5333 -50.6433 4.1588 28931.2890 -50.6433 4.1588
ENERGY: 300000 0.0000 0.0000 0.0000 0.0000 -13962.1803 2319.9520 0.0000 0.0000 525.7536 -11116.4747 90.4517 -11642.2283 -11115.5689 89.9464 -301.1563 -255.9497 28618.4869 5.0081 5.0192
TCL: Running 100000 steps at 120 kelvin.
TCL: Setting parameter langevinTemp to 120
TCL: Running for 100000 steps
ETITLE: TS BOND ANGLE DIHED IMPRP ELECT VDW BOUNDARY MISC KINETIC TOTAL TEMP POTENTIAL TOTAL3 TEMPAVG PRESSURE GPRESSURE VOLUME PRESSAVG GPRESSAVG
ENERGY: 300000 0.0000 0.0000 0.0000 0.0000 -13962.1803 2319.9520 0.0000 0.0000 525.4982 -11116.7301 90.4078 -11642.2283 -11115.5675 90.4078 -317.0521 -256.4956 28618.4869 -317.0521 -256.4956
ENERGY: 400000 0.0000 0.0000 0.0000 0.0000 -13822.8972 2297.9720 0.0000 0.0000 724.9453 -10799.9800 124.7210 -11524.9253 -10798.3241 119.8521 -23.2671 3.3138 28744.6602 3.0987 3.0913
TCL: Running 100000 steps at 150 kelvin.
TCL: Setting parameter langevinTemp to 150
TCL: Running for 100000 steps
ETITLE: TS BOND ANGLE DIHED IMPRP ELECT VDW BOUNDARY MISC KINETIC TOTAL TEMP POTENTIAL TOTAL3 TEMPAVG PRESSURE GPRESSURE VOLUME PRESSAVG GPRESSAVG
ENERGY: 400000 0.0000 0.0000 0.0000 0.0000 -13822.8972 2297.9720 0.0000 0.0000 724.6065 -10800.3188 124.6628 -11524.9253 -10798.9812 124.6628 -49.7777 3.0555 28744.6602 -49.7777 3.0555
ENERGY: 500000 0.0000 0.0000 0.0000 0.0000 -13436.3807 2130.7167 0.0000 0.0000 880.9591 -10424.7048 151.5620 -11305.6640 -10422.1441 150.2110 -461.2617 -414.3725 28558.9420 4.0819 4.0449
TCL: Running 100000 steps at 180 kelvin.
TCL: Setting parameter langevinTemp to 180
TCL: Running for 100000 steps
ETITLE: TS BOND ANGLE DIHED IMPRP ELECT VDW BOUNDARY MISC KINETIC TOTAL TEMP POTENTIAL TOTAL3 TEMPAVG PRESSURE GPRESSURE VOLUME PRESSAVG GPRESSAVG
ENERGY: 500000 0.0000 0.0000 0.0000 0.0000 -13436.3807 2130.7167 0.0000 0.0000 880.4984 -10425.1655 151.4827 -11305.6640 -10423.3106 151.4827 -470.2416 -414.0069 28558.9420 -470.2416 -414.0069
ENERGY: 600000 0.0000 0.0000 0.0000 0.0000 -13101.7026 2082.4668 0.0000 0.0000 1047.1096 -9972.1262 180.1468 -11019.2358 -9970.4650 180.1331 -8.2726 28.5409 28961.5583 2.1876 2.3279
TCL: Running 100000 steps at 210 kelvin.
TCL: Setting parameter langevinTemp to 210
TCL: Running for 100000 steps
ETITLE: TS BOND ANGLE DIHED IMPRP ELECT VDW BOUNDARY MISC KINETIC TOTAL TEMP POTENTIAL TOTAL3 TEMPAVG PRESSURE GPRESSURE VOLUME PRESSAVG GPRESSAVG
ENERGY: 600000 0.0000 0.0000 0.0000 0.0000 -13101.7026 2082.4668 0.0000 0.0000 1046.5860 -9972.6498 180.0568 -11019.2358 -9970.1635 180.0568 -29.4801 26.7429 28961.5583 -29.4801 26.7429
ENERGY: 700000 0.0000 0.0000 0.0000 0.0000 -12494.3799 1852.1757 0.0000 0.0000 1212.4447 -9429.7595 208.5914 -10642.2042 -9428.1662 209.9061 -277.4043 -176.6526 28703.3336 3.7833 3.9147
TCL: Running 100000 steps at 240 kelvin.
TCL: Setting parameter langevinTemp to 240
TCL: Running for 100000 steps
ETITLE: TS BOND ANGLE DIHED IMPRP ELECT VDW BOUNDARY MISC KINETIC TOTAL TEMP POTENTIAL TOTAL3 TEMPAVG PRESSURE GPRESSURE VOLUME PRESSAVG GPRESSAVG
ENERGY: 700000 0.0000 0.0000 0.0000 0.0000 -12494.3799 1852.1757 0.0000 0.0000 1211.8221 -9430.3821 208.4843 -10642.2042 -9428.1147 208.4843 -257.1217 -177.1121 28703.3336 -257.1217 -177.1121
ENERGY: 800000 0.0000 0.0000 0.0000 0.0000 -11695.9580 1565.7172 0.0000 0.0000 1389.0978 -8741.1430 238.9832 -10130.2408 -8737.7244 239.6495 -1067.3655 -993.9829 29237.0177 3.0139 3.0636
TCL: Running 100000 steps at 270 kelvin.
TCL: Setting parameter langevinTemp to 270
TCL: Running for 100000 steps
ETITLE: TS BOND ANGLE DIHED IMPRP ELECT VDW BOUNDARY MISC KINETIC TOTAL TEMP POTENTIAL TOTAL3 TEMPAVG PRESSURE GPRESSURE VOLUME PRESSAVG GPRESSAVG
ENERGY: 800000 0.0000 0.0000 0.0000 0.0000 -11695.9580 1565.7172 0.0000 0.0000 1388.3978 -8741.8430 238.8628 -10130.2408 -8738.9843 238.8628 -1078.4828 -993.7111 29237.0177 -1078.4828 -993.7111
ENERGY: 900000 0.0000 0.0000 0.0000 0.0000 -11308.0669 1568.6721 0.0000 0.0000 1579.0853 -8160.3095 271.6690 -9739.3948 -8158.1114 269.5989 -234.1253 -123.7062 30120.9891 3.7553 3.6938
TCL: Running 1000000 steps at 300 kelvin.
TCL: Setting parameter langevinTemp to 300
TCL: Running for 1000000 steps
ETITLE: TS BOND ANGLE DIHED IMPRP ELECT VDW BOUNDARY MISC KINETIC TOTAL TEMP POTENTIAL TOTAL3 TEMPAVG PRESSURE GPRESSURE VOLUME PRESSAVG GPRESSAVG
ENERGY: 900000 0.0000 0.0000 0.0000 0.0000 -11308.0669 1568.6721 0.0000 0.0000 1578.3100 -8161.0848 271.5356 -9739.3948 -8157.7560 271.5356 -208.2939 -123.7537 30120.9891 -208.2939 -123.7537
ENERGY: 1100000 0.0000 0.0000 0.0000 0.0000 -10916.4859 1494.8115 0.0000 0.0000 1776.6800 -7644.9944 305.6636 -9421.6744 -7643.1545 300.3522 566.3687 674.5159 30022.0507 3.2782 3.1708
ENERGY: 1300000 0.0000 0.0000 0.0000 0.0000 -10632.5184 1372.7211 0.0000 0.0000 1707.1231 -7552.6742 293.6969 -9259.7972 -7549.3599 299.8134 -588.1917 -489.0194 31163.7081 2.5483 2.5205
ENERGY: 1500000 0.0000 0.0000 0.0000 0.0000 -10783.3620 1415.9965 0.0000 0.0000 1743.6583 -7623.7071 299.9825 -9367.3654 -7620.5039 300.6894 -95.0190 -5.6353 30381.6501 3.5034 3.5807
ENERGY: 1700000 0.0000 0.0000 0.0000 0.0000 -10833.0378 1447.7046 0.0000 0.0000 1762.5724 -7622.7608 303.2365 -9385.3332 -7620.7031 300.4360 -8.1805 101.0484 30390.4292 0.9427 0.7197
ENERGY: 1900000 0.0000 0.0000 0.0000 0.0000 -10931.8040 1541.9202 0.0000 0.0000 1704.0175 -7685.8663 293.1626 -9389.8838 -7682.1935 299.5680 700.8737 857.2659 30326.6983 2.3608 2.4185
TCL: Exiting due to exit command.
