Info: SIMULATION PARAMETERS:
Info: TIMESTEP               2
Info: NUMBER OF STEPS        0
Info: STEPS PER CYCLE        10
Info: PERIODIC CELL BASIS 1  37.968 0 0
Info: PERIODIC CELL BASIS 2  0 34.26 0
Info: PERIODIC CELL BASIS 3  0 0 33.876
Info: PERIODIC CELL CENTER   0 0 0
Info: WRAPPING WATERS AROUND PERIODIC BOUNDARIES ON OUTPUT.
Info: WRAPPING ALL CLUSTERS AROUND PERIODIC BOUNDARIES ON OUTPUT.
Info: FIRST LDB TIMESTEP     50
Info: LAST LDB TIMESTEP     -1
Info: HOM BACKGROUND SCALING 1
Info: PME BACKGROUND SCALING 1
Info: MIN ATOMS PER PATCH    40
Info: EMPTY PATCH LOAD       40 ATOMS
Info: INITIAL TEMPERATURE    300
Info: CENTER OF MASS MOVING INITIALLY? NO
Info: DIELECTRIC             1
Info: EXCLUDE                SCALED ONE-FOUR
Info: 1-4 ELECTROSTATICS SCALED BY 0.833333
Info: MODIFIED 1-4 VDW PARAMETERS WILL BE USED
Info: DCD FILENAME           mobley_6978427_equil.dcd
Info: DCD FREQUENCY          100000
Info: DCD FIRST STEP         100000
Info: DCD FILE WILL CONTAIN UNIT CELL DATA
Info: XST FILENAME           mobley_6978427_equil.xst
Info: XST FREQUENCY          100000
Info: NO VELOCITY DCD OUTPUT
Info: NO FORCE DCD OUTPUT
Info: OUTPUT FILENAME        mobley_6978427_equil
Info: BINARY OUTPUT FILES WILL BE USED
Info: RESTART FILENAME       mobley_6978427_equil.restart
Info: RESTART FREQUENCY      100000
Info: BINARY RESTART FILES WILL BE USED
Info: CUTOFF                 9
Info: PAIRLIST DISTANCE      11
Info: PAIRLIST SHRINK RATE   0.01
Info: PAIRLIST GROW RATE     0.01
Info: PAIRLIST TRIGGER       0.3
Info: PAIRLISTS PER CYCLE    2
Info: PAIRLISTS ENABLED
Info: MARGIN                 8
Info: HYDROGEN GROUP CUTOFF  2.5
Info: PATCH DIMENSION        21.5
Info: ENERGY OUTPUT STEPS    100000
Info: ENERGY EVALUATION STEPS    100000
Info: OUTPUT ENERGY PRECISION 4
Info: CROSSTERM ENERGY INCLUDED IN DIHEDRAL
Info: TIMING OUTPUT STEPS    1000000
Info: PRESSURE OUTPUT STEPS  100000
Info: FIXED ATOMS ACTIVE
Info: LANGEVIN DYNAMICS ACTIVE
Info: LANGEVIN TEMPERATURE   30
Info: LANGEVIN USING BBK INTEGRATOR
Info: LANGEVIN DAMPING COEFFICIENT IS 1 INVERSE PS
Info: LANGEVIN DYNAMICS APPLIED TO HYDROGENS
Info: LANGEVIN PISTON PRESSURE CONTROL ACTIVE
Info:        TARGET PRESSURE IS 1.01325 BAR
Info:     OSCILLATION PERIOD IS 50 FS
Info:             DECAY TIME IS 25 FS
Info:     PISTON TEMPERATURE IS 300 K
Info:       PRESSURE CONTROL IS GROUP-BASED
Info:    INITIAL STRAIN RATE IS 0 0 0
Info:       CELL FLUCTUATION IS ISOTROPIC
Info: PARTICLE MESH EWALD (PME) ACTIVE
Info: PME TOLERANCE               1e-06
Info: PME EWALD COEFFICIENT       0.348832
Info: PME INTERPOLATION ORDER     4
Info: PME GRID DIMENSIONS         40 36 36
Info: PME MAXIMUM GRID SPACING    1
Info: FULL ELECTROSTATIC EVALUATION FREQUENCY      2
Info: USING VERLET I (r-RESPA) MTS SCHEME.
Info: C1 SPLITTING OF LONG RANGE ELECTROSTATICS
Info: PLACING ATOMS IN PATCHES BY HYDROGEN GROUPS
Info: RIGID BONDS TO HYDROGEN : ALL
Info:         ERROR TOLERANCE : 1e-08
Info:          MAX ITERATIONS : 100
Info: RIGID WATER USING SETTLE ALGORITHM
Info: RANDOM NUMBER SEED     1744762862
Info: USE HYDROGEN BONDS?    NO
Info: Using AMBER format force field!
Info: AMBER PARM FILE        mobley_6978427.prmtop
Info: COORDINATE PDB         mobley_6978427.pdb
Info: Exclusions will be read from PARM file!
Info: SCNB (VDW SCALING)     2
Info: USING ARITHMETIC MEAN TO COMBINE L-J SIGMA PARAMETERS
Info: BINARY COORDINATES     mobley_6978427_min.coor
Info: SUMMARY OF PARAMETERS:
Info: 9 BONDS
Info: 11 ANGLES
Info:   11 HARMONIC
Info:   0 COSINE-BASED
Info: 16 DIHEDRAL
Info: 0 IMPROPER
Info: 0 CROSSTERM
Info: 0 VDW
Info: 36 VDW_PAIRS
Info: 0 NBTHOLE_PAIRS
Info: STRUCTURE SUMMARY:
Info: 2928 ATOMS
Info: 2928 BONDS
Info: 46 ANGLES
Info: 83 DIHEDRALS
Info: 0 IMPROPERS
Info: 0 CROSSTERMS
Info: 3036 EXCLUSIONS
Info: 24 FIXED ATOMS
Info: 2918 RIGID BONDS
Info: 14 RIGID BONDS BETWEEN FIXED ATOMS
Info: 5808 DEGREES OF FREEDOM
Info: 978 HYDROGEN GROUPS
Info: 4 ATOMS IN LARGEST HYDROGEN GROUP
Info: 978 MIGRATION GROUPS
Info: 4 ATOMS IN LARGEST MIGRATION GROUP
Info: 10 HYDROGEN GROUPS WITH ALL ATOMS FIXED
Info: TOTAL MASS = 17581.7 amu
Info: TOTAL CHARGE = -0.000199955 e
Info: MASS DENSITY = 0.662556 g/cm^3
Info: ATOM DENSITY = 0.0664468 atoms/A^3
Info: ADDED 0 IMPLICIT EXCLUSIONS
Info: NONBONDED TABLE R-SQUARED SPACING: 0.0625
Info: NONBONDED TABLE SIZE: 705 POINTS
Info: REMOVING COM VELOCITY 0.17733 -0.140757 0.097822
TCL: Running for 100000 steps
ETITLE: TS BOND ANGLE DIHED IMPRP ELECT VDW BOUNDARY MISC KINETIC TOTAL TEMP POTENTIAL TOTAL3 TEMPAVG PRESSURE GPRESSURE VOLUME PRESSAVG GPRESSAVG
ENERGY: 0 0.0000 0.0000 0.0000 0.0000 -13598.5556 2399.7510 0.0000 0.0000 1730.1265 -9468.6780 299.8069 -11198.8046 -9468.3593 299.8069 392.3348 429.8469 44065.3479 392.3348 429.8469
ENERGY: 100000 0.0000 0.0000 0.0000 0.0000 -14129.3872 2494.7651 0.0000 0.0000 172.2442 -11462.3778 29.8475 -11634.6220 -11462.0828 30.9311 588.7212 631.8535 28835.3491 2.7504 2.8724
TCL: Running 100000 steps at 60 kelvin.
TCL: Setting parameter langevinTemp to 60
TCL: Running for 100000 steps
ETITLE: TS BOND ANGLE DIHED IMPRP ELECT VDW BOUNDARY MISC KINETIC TOTAL TEMP POTENTIAL TOTAL3 TEMPAVG PRESSURE GPRESSURE VOLUME PRESSAVG GPRESSAVG
ENERGY: 100000 0.0000 0.0000 0.0000 0.0000 -14129.3872 2494.7651 0.0000 0.0000 172.1587 -11462.4633 29.8327 -11634.6220 -11462.1548 29.8327 577.5269 631.5267 28835.3491 577.5269 631.5267
ENERGY: 200000 0.0000 0.0000 0.0000 0.0000 -13852.4769 2236.3875 0.0000 0.0000 337.5286 -11278.5608 58.4890 -11616.0894 -11277.4990 60.0845 -1438.4030 -1356.5955 28670.3349 4.4008 4.3650
TCL: Running 100000 steps at 90 kelvin.
TCL: Setting parameter langevinTemp to 90
TCL: Running for 100000 steps
ETITLE: TS BOND ANGLE DIHED IMPRP ELECT VDW BOUNDARY MISC KINETIC TOTAL TEMP POTENTIAL TOTAL3 TEMPAVG PRESSURE GPRESSURE VOLUME PRESSAVG GPRESSAVG
ENERGY: 200000 0.0000 0.0000 0.0000 0.0000 -13852.4769 2236.3875 0.0000 0.0000 337.3597 -11278.7297 58.4597 -11616.0894 -11278.0842 58.4597 -1420.5203 -1356.2789 28670.3349 -1420.5203 -1356.2789
ENERGY: 300000 0.0000 0.0000 0.0000 0.0000 -13830.5613 2325.5330 0.0000 0.0000 522.0529 -10982.9754 90.4645 -11505.0283 -10981.3052 89.9997 -331.0601 -252.5205 28563.6655 3.5187 3.7263
TCL: Running 100000 steps at 120 kelvin.
TCL: Setting parameter langevinTemp to 120
TCL: Running for 100000 steps
ETITLE: TS BOND ANGLE DIHED IMPRP ELECT VDW BOUNDARY MISC KINETIC TOTAL TEMP POTENTIAL TOTAL3 TEMPAVG PRESSURE GPRESSURE VOLUME PRESSAVG GPRESSAVG
ENERGY: 300000 0.0000 0.0000 0.0000 0.0000 -13830.5613 2325.5330 0.0000 0.0000 521.7838 -10983.2445 90.4179 -11505.0283 -10982.0949 90.4179 -307.9307 -252.3559 28563.6655 -307.9307 -252.3559
ENERGY: 400000 0.0000 0.0000 0.0000 0.0000 -13669.4965 2292.2283 0.0000 0.0000 707.2901 -10669.9782 122.5636 -11377.2682 -10667.4103 119.9791 -95.8947 -20.4268 28780.3080 4.5272 4.4757
TCL: Running 100000 steps at 150 kelvin.
TCL: Setting parameter langevinTemp to 150
TCL: Running for 100000 steps
ETITLE: TS BOND ANGLE DIHED IMPRP ELECT VDW BOUNDARY MISC KINETIC TOTAL TEMP POTENTIAL TOTAL3 TEMPAVG PRESSURE GPRESSURE VOLUME PRESSAVG GPRESSAVG
ENERGY: 400000 0.0000 0.0000 0.0000 0.0000 -13669.4965 2292.2283 0.0000 0.0000 706.9526 -10670.3156 122.5051 -11377.2682 -10668.5695 122.5051 -73.4376 -20.1802 28780.3080 -73.4376 -20.1802
ENERGY: 500000 0.0000 0.0000 0.0000 0.0000 -13446.3720 2243.1691 0.0000 0.0000 858.2268 -10344.9761 148.7188 -11203.2029 -10342.9647 150.1164 269.7433 358.7987 28539.7050 2.4390 2.3583
TCL: Running 100000 steps at 180 kelvin.
TCL: Setting parameter langevinTemp to 180
TCL: Running for 100000 steps
ETITLE: TS BOND ANGLE DIHED IMPRP ELECT VDW BOUNDARY MISC KINETIC TOTAL TEMP POTENTIAL TOTAL3 TEMPAVG PRESSURE GPRESSURE VOLUME PRESSAVG GPRESSAVG
ENERGY: 500000 0.0000 0.0000 0.0000 0.0000 -13446.3720 2243.1691 0.0000 0.0000 857.7884 -10345.4145 148.6428 -11203.2029 -10344.0569 148.6428 304.9778 359.4343 28539.7050 304.9778 359.4343
ENERGY: 600000 0.0000 0.0000 0.0000 0.0000 -12974.6704 2073.8919 0.0000 0.0000 1031.8352 -9868.9433 178.8027 -10900.7785 -9866.3485 179.8477 -14.5114 12.9487 28629.1234 3.5201 3.4249
TCL: Running 100000 steps at 210 kelvin.
TCL: Setting parameter langevinTemp to 210
TCL: Running for 100000 steps
ETITLE: TS BOND ANGLE DIHED IMPRP ELECT VDW BOUNDARY MISC KINETIC TOTAL TEMP POTENTIAL TOTAL3 TEMPAVG PRESSURE GPRESSURE VOLUME PRESSAVG GPRESSAVG
ENERGY: 600000 0.0000 0.0000 0.0000 0.0000 -12974.6704 2073.8919 0.0000 0.0000 1031.3275 -9869.4510 178.7147 -10900.7785 -9866.7745 178.7147 -53.4433 12.2048 28629.1234 -53.4433 12.2048
ENERGY: 700000 0.0000 0.0000 0.0000 0.0000 -12304.3489 1854.3674 0.0000 0.0000 1196.0102 -9253.9712 207.2520 -10449.9814 -9252.2335 209.7434 108.2832 200.1391 28215.1906 5.2006 5.1736
TCL: Running 100000 steps at 240 kelvin.
TCL: Setting parameter langevinTemp to 240
TCL: Running for 100000 steps
ETITLE: TS BOND ANGLE DIHED IMPRP ELECT VDW BOUNDARY MISC KINETIC TOTAL TEMP POTENTIAL TOTAL3 TEMPAVG PRESSURE GPRESSURE VOLUME PRESSAVG GPRESSAVG
ENERGY: 700000 0.0000 0.0000 0.0000 0.0000 -12304.3489 1854.3674 0.0000 0.0000 1195.4117 -9254.5697 207.1483 -10449.9814 -9252.5251 207.1483 127.9967 199.4052 28215.1906 127.9967 199.4052
ENERGY: 800000 0.0000 0.0000 0.0000 0.0000 -11764.0870 1711.1963 0.0000 0.0000 1389.2974 -8663.5933 240.7460 -10052.8907 -8660.3636 239.9991 266.6215 296.1923 28551.6293 4.3736 4.3488
TCL: Running 100000 steps at 270 kelvin.
TCL: Setting parameter langevinTemp to 270
TCL: Running for 100000 steps
ETITLE: TS BOND ANGLE DIHED IMPRP ELECT VDW BOUNDARY MISC KINETIC TOTAL TEMP POTENTIAL TOTAL3 TEMPAVG PRESSURE GPRESSURE VOLUME PRESSAVG GPRESSAVG
ENERGY: 800000 0.0000 0.0000 0.0000 0.0000 -11764.0870 1711.1963 0.0000 0.0000 1388.5925 -8664.2981 240.6238 -10052.8907 -8661.9767 240.6238 223.8454 296.4367 28551.6293 223.8454 296.4367
ENERGY: 900000 0.0000 0.0000 0.0000 0.0000 -11106.1070 1467.8806 0.0000 0.0000 1600.0280 -8038.1984 277.2626 -9638.2265 -8035.2310 269.6730 -827.2243 -760.1505 29566.9137 4.2377 4.2589
TCL: Running 1000000 steps at 300 kelvin.
TCL: Setting parameter langevinTemp to 300
TCL: Running for 1000000 steps
ETITLE: TS BOND ANGLE DIHED IMPRP ELECT VDW BOUNDARY MISC KINETIC TOTAL TEMP POTENTIAL TOTAL3 TEMPAVG PRESSURE GPRESSURE VOLUME PRESSAVG GPRESSAVG
ENERGY: 900000 0.0000 0.0000 0.0000 0.0000 -11106.1070 1467.8806 0.0000 0.0000 1599.2315 -8038.9949 277.1246 -9638.2265 -8035.8336 277.1246 -841.3258 -759.8300 29566.9137 -841.3258 -759.8300
ENERGY: 1100000 0.0000 0.0000 0.0000 0.0000 -10584.8286 1358.9082 0.0000 0.0000 1758.6096 -7467.3108 304.7426 -9225.9204 -7464.0444 299.7566 -307.8102 -239.3691 29887.5480 2.6985 2.6251
ENERGY: 1300000 0.0000 0.0000 0.0000 0.0000 -10873.0383 1542.1193 0.0000 0.0000 1742.2674 -7588.6517 301.9108 -9330.9191 -7586.0488 300.0669 818.4963 960.5422 29521.9995 2.9330 2.6631
ENERGY: 1500000 0.0000 0.0000 0.0000 0.0000 -10628.5168 1412.2886 0.0000 0.0000 1703.2566 -7512.9716 295.1507 -9216.2282 -7512.6028 300.3243 296.0228 407.0591 29508.6299 4.1675 4.0151
ENERGY: 1700000 0.0000 0.0000 0.0000 0.0000 -10589.0058 1334.7480 0.0000 0.0000 1731.8083 -7522.4496 300.0983 -9254.2578 -7518.7530 299.8600 -729.1425 -556.8199 29798.0564 4.2502 4.4546
ENERGY: 1900000 0.0000 0.0000 0.0000 0.0000 -10607.3354 1440.9357 0.0000 0.0000 1709.1673 -7457.2324 296.1750 -9166.3997 -7455.0997 300.0539 174.4010 252.2536 30538.1132 3.8339 3.7661
TCL: Exiting due to exit command.
