Info: SIMULATION PARAMETERS:
Info: TIMESTEP               2
Info: NUMBER OF STEPS        0
Info: STEPS PER CYCLE        10
Info: PERIODIC CELL BASIS 1  37.435 0 0
Info: PERIODIC CELL BASIS 2  0 34.26 0
Info: PERIODIC CELL BASIS 3  0 0 34.229
Info: PERIODIC CELL CENTER   0 0 0
Info: WRAPPING WATERS AROUND PERIODIC BOUNDARIES ON OUTPUT.
Info: WRAPPING ALL CLUSTERS AROUND PERIODIC BOUNDARIES ON OUTPUT.
Info: FIRST LDB TIMESTEP     50
Info: LAST LDB TIMESTEP     -1
Info: HOM BACKGROUND SCALING 1
Info: PME BACKGROUND SCALING 1
Info: MIN ATOMS PER PATCH    40
Info: EMPTY PATCH LOAD       40 ATOMS
Info: INITIAL TEMPERATURE    300
Info: CENTER OF MASS MOVING INITIALLY? NO
Info: DIELECTRIC             1
Info: EXCLUDE                SCALED ONE-FOUR
Info: 1-4 ELECTROSTATICS SCALED BY 0.833333
Info: MODIFIED 1-4 VDW PARAMETERS WILL BE USED
Info: DCD FILENAME           mobley_1449384_equil.dcd
Info: DCD FREQUENCY          100000
Info: DCD FIRST STEP         100000
Info: DCD FILE WILL CONTAIN UNIT CELL DATA
Info: XST FILENAME           mobley_1449384_equil.xst
Info: XST FREQUENCY          100000
Info: NO VELOCITY DCD OUTPUT
Info: NO FORCE DCD OUTPUT
Info: OUTPUT FILENAME        mobley_1449384_equil
Info: BINARY OUTPUT FILES WILL BE USED
Info: RESTART FILENAME       mobley_1449384_equil.restart
Info: RESTART FREQUENCY      100000
Info: BINARY RESTART FILES WILL BE USED
Info: CUTOFF                 9
Info: PAIRLIST DISTANCE      11
Info: PAIRLIST SHRINK RATE   0.01
Info: PAIRLIST GROW RATE     0.01
Info: PAIRLIST TRIGGER       0.3
Info: PAIRLISTS PER CYCLE    2
Info: PAIRLISTS ENABLED
Info: MARGIN                 8
Info: HYDROGEN GROUP CUTOFF  2.5
Info: PATCH DIMENSION        21.5
Info: ENERGY OUTPUT STEPS    100000
Info: ENERGY EVALUATION STEPS    100000
Info: OUTPUT ENERGY PRECISION 4
Info: CROSSTERM ENERGY INCLUDED IN DIHEDRAL
Info: TIMING OUTPUT STEPS    1000000
Info: PRESSURE OUTPUT STEPS  100000
Info: FIXED ATOMS ACTIVE
Info: LANGEVIN DYNAMICS ACTIVE
Info: LANGEVIN TEMPERATURE   30
Info: LANGEVIN USING BBK INTEGRATOR
Info: LANGEVIN DAMPING COEFFICIENT IS 1 INVERSE PS
Info: LANGEVIN DYNAMICS APPLIED TO HYDROGENS
Info: LANGEVIN PISTON PRESSURE CONTROL ACTIVE
Info:        TARGET PRESSURE IS 1.01325 BAR
Info:     OSCILLATION PERIOD IS 50 FS
Info:             DECAY TIME IS 25 FS
Info:     PISTON TEMPERATURE IS 300 K
Info:       PRESSURE CONTROL IS GROUP-BASED
Info:    INITIAL STRAIN RATE IS 0 0 0
Info:       CELL FLUCTUATION IS ISOTROPIC
Info: PARTICLE MESH EWALD (PME) ACTIVE
Info: PME TOLERANCE               1e-06
Info: PME EWALD COEFFICIENT       0.348832
Info: PME INTERPOLATION ORDER     4
Info: PME GRID DIMENSIONS         40 36 36
Info: PME MAXIMUM GRID SPACING    1
Info: FULL ELECTROSTATIC EVALUATION FREQUENCY      2
Info: USING VERLET I (r-RESPA) MTS SCHEME.
Info: C1 SPLITTING OF LONG RANGE ELECTROSTATICS
Info: PLACING ATOMS IN PATCHES BY HYDROGEN GROUPS
Info: RIGID BONDS TO HYDROGEN : ALL
Info:         ERROR TOLERANCE : 1e-08
Info:          MAX ITERATIONS : 100
Info: RIGID WATER USING SETTLE ALGORITHM
Info: RANDOM NUMBER SEED     1744762720
Info: USE HYDROGEN BONDS?    NO
Info: Using AMBER format force field!
Info: AMBER PARM FILE        mobley_1449384.prmtop
Info: COORDINATE PDB         mobley_1449384.pdb
Info: Exclusions will be read from PARM file!
Info: SCNB (VDW SCALING)     2
Info: USING ARITHMETIC MEAN TO COMBINE L-J SIGMA PARAMETERS
Info: BINARY COORDINATES     mobley_1449384_min.coor
Info: SUMMARY OF PARAMETERS:
Info: 7 BONDS
Info: 8 ANGLES
Info: 6 DIHEDRAL
Info: 0 IMPROPER
Info: 0 CROSSTERM
Info: 0 VDW
Info: 21 VDW_PAIRS
Info: 0 NBTHOLE_PAIRS
Info: STRUCTURE SUMMARY:
Info: 2979 ATOMS
Info: 2979 BONDS
Info: 42 ANGLES
Info: 60 DIHEDRALS
Info: 0 IMPROPERS
Info: 0 CROSSTERMS
Info: 3072 EXCLUSIONS
Info: 24 FIXED ATOMS
Info: 2969 RIGID BONDS
Info: 14 RIGID BONDS BETWEEN FIXED ATOMS
Info: 5910 DEGREES OF FREEDOM
Info: 995 HYDROGEN GROUPS
Info: 4 ATOMS IN LARGEST HYDROGEN GROUP
Info: 995 MIGRATION GROUPS
Info: 4 ATOMS IN LARGEST MIGRATION GROUP
Info: 10 HYDROGEN GROUPS WITH ALL ATOMS FIXED
Info: TOTAL MASS = 17880 amu
Info: TOTAL CHARGE = 5.21541e-08 e
Info: MASS DENSITY = 0.676342 g/cm^3
Info: ATOM DENSITY = 0.0678596 atoms/A^3
Info: ADDED 0 IMPLICIT EXCLUSIONS
Info: NONBONDED TABLE R-SQUARED SPACING: 0.0625
Info: NONBONDED TABLE SIZE: 705 POINTS
Info: REMOVING COM VELOCITY 0.0740101 -0.0767259 0.151981
TCL: Running for 100000 steps
ETITLE: TS BOND ANGLE DIHED IMPRP ELECT VDW BOUNDARY MISC KINETIC TOTAL TEMP POTENTIAL TOTAL3 TEMPAVG PRESSURE GPRESSURE VOLUME PRESSAVG GPRESSAVG
ENERGY: 0 0.0000 0.0000 0.0000 0.0000 -13675.0476 2387.3184 0.0000 0.0000 1777.2688 -9510.4603 302.6607 -11287.7292 -9510.1303 302.6607 231.3581 267.6172 43899.4832 231.3581 267.6172
ENERGY: 100000 0.0000 0.0000 0.0000 0.0000 -14307.2696 2490.4452 0.0000 0.0000 173.1184 -11643.7060 29.4813 -11816.8244 -11643.0792 30.9574 49.8758 112.6960 29214.5130 4.5314 4.5906
TCL: Running 100000 steps at 60 kelvin.
TCL: Setting parameter langevinTemp to 60
TCL: Running for 100000 steps
ETITLE: TS BOND ANGLE DIHED IMPRP ELECT VDW BOUNDARY MISC KINETIC TOTAL TEMP POTENTIAL TOTAL3 TEMPAVG PRESSURE GPRESSURE VOLUME PRESSAVG GPRESSAVG
ENERGY: 100000 0.0000 0.0000 0.0000 0.0000 -14307.2696 2490.4452 0.0000 0.0000 173.0328 -11643.7916 29.4667 -11816.8244 -11643.4439 29.4667 44.4034 112.9000 29214.5130 44.4034 112.9000
ENERGY: 200000 0.0000 0.0000 0.0000 0.0000 -14099.4238 2331.4213 0.0000 0.0000 349.0027 -11418.9998 59.4335 -11768.0025 -11418.2599 60.0069 -901.3724 -882.1181 29010.5225 5.3438 5.2833
TCL: Running 100000 steps at 90 kelvin.
TCL: Setting parameter langevinTemp to 90
TCL: Running for 100000 steps
ETITLE: TS BOND ANGLE DIHED IMPRP ELECT VDW BOUNDARY MISC KINETIC TOTAL TEMP POTENTIAL TOTAL3 TEMPAVG PRESSURE GPRESSURE VOLUME PRESSAVG GPRESSAVG
ENERGY: 200000 0.0000 0.0000 0.0000 0.0000 -14099.4238 2331.4213 0.0000 0.0000 348.8250 -11419.1775 59.4033 -11768.0025 -11418.3952 59.4033 -946.4311 -882.2883 29010.5225 -946.4311 -882.2883
ENERGY: 300000 0.0000 0.0000 0.0000 0.0000 -13951.5408 2277.6011 0.0000 0.0000 533.0814 -11140.8584 90.7813 -11673.9397 -11139.1906 89.8523 -1099.4873 -1043.8288 29068.0516 3.8973 3.9426
TCL: Running 100000 steps at 120 kelvin.
TCL: Setting parameter langevinTemp to 120
TCL: Running for 100000 steps
ETITLE: TS BOND ANGLE DIHED IMPRP ELECT VDW BOUNDARY MISC KINETIC TOTAL TEMP POTENTIAL TOTAL3 TEMPAVG PRESSURE GPRESSURE VOLUME PRESSAVG GPRESSAVG
ENERGY: 300000 0.0000 0.0000 0.0000 0.0000 -13951.5408 2277.6011 0.0000 0.0000 532.8222 -11141.1175 90.7372 -11673.9397 -11139.6935 90.7372 -1087.0899 -1043.9504 29068.0516 -1087.0899 -1043.9504
ENERGY: 400000 0.0000 0.0000 0.0000 0.0000 -13865.6724 2284.6816 0.0000 0.0000 697.5859 -10883.4049 118.7957 -11580.9908 -10881.4701 119.9504 -725.7943 -681.5919 29185.1829 3.8409 3.8108
TCL: Running 100000 steps at 150 kelvin.
TCL: Setting parameter langevinTemp to 150
TCL: Running for 100000 steps
ETITLE: TS BOND ANGLE DIHED IMPRP ELECT VDW BOUNDARY MISC KINETIC TOTAL TEMP POTENTIAL TOTAL3 TEMPAVG PRESSURE GPRESSURE VOLUME PRESSAVG GPRESSAVG
ENERGY: 400000 0.0000 0.0000 0.0000 0.0000 -13865.6724 2284.6816 0.0000 0.0000 697.2332 -10883.7576 118.7356 -11580.9908 -10882.4358 118.7356 -742.6649 -681.3190 29185.1829 -742.6649 -681.3190
ENERGY: 500000 0.0000 0.0000 0.0000 0.0000 -13601.1454 2226.8633 0.0000 0.0000 887.5764 -10486.7057 151.1502 -11374.2821 -10484.1539 149.8316 -288.9318 -178.3088 28888.4305 3.7633 3.7482
TCL: Running 100000 steps at 180 kelvin.
TCL: Setting parameter langevinTemp to 180
TCL: Running for 100000 steps
ETITLE: TS BOND ANGLE DIHED IMPRP ELECT VDW BOUNDARY MISC KINETIC TOTAL TEMP POTENTIAL TOTAL3 TEMPAVG PRESSURE GPRESSURE VOLUME PRESSAVG GPRESSAVG
ENERGY: 500000 0.0000 0.0000 0.0000 0.0000 -13601.1454 2226.8633 0.0000 0.0000 887.1235 -10487.1587 151.0730 -11374.2821 -10485.6014 151.0730 -238.4411 -177.8823 28888.4305 -238.4411 -177.8823
ENERGY: 600000 0.0000 0.0000 0.0000 0.0000 -13227.7973 2155.6144 0.0000 0.0000 1098.6142 -9973.5688 187.0889 -11072.1830 -9970.5929 179.8804 270.6671 373.3851 28920.2084 4.4056 4.3157
TCL: Running 100000 steps at 210 kelvin.
TCL: Setting parameter langevinTemp to 210
TCL: Running for 100000 steps
ETITLE: TS BOND ANGLE DIHED IMPRP ELECT VDW BOUNDARY MISC KINETIC TOTAL TEMP POTENTIAL TOTAL3 TEMPAVG PRESSURE GPRESSURE VOLUME PRESSAVG GPRESSAVG
ENERGY: 600000 0.0000 0.0000 0.0000 0.0000 -13227.7973 2155.6144 0.0000 0.0000 1098.0895 -9974.0934 186.9996 -11072.1830 -9971.9240 186.9996 311.0545 374.4938 28920.2084 311.0545 374.4938
ENERGY: 700000 0.0000 0.0000 0.0000 0.0000 -12487.6443 1921.3245 0.0000 0.0000 1240.8813 -9325.4385 211.3164 -10566.3198 -9323.5737 210.2340 66.2385 208.0659 29233.2200 1.6454 1.5765
TCL: Running 100000 steps at 240 kelvin.
TCL: Setting parameter langevinTemp to 240
TCL: Running for 100000 steps
ETITLE: TS BOND ANGLE DIHED IMPRP ELECT VDW BOUNDARY MISC KINETIC TOTAL TEMP POTENTIAL TOTAL3 TEMPAVG PRESSURE GPRESSURE VOLUME PRESSAVG GPRESSAVG
ENERGY: 700000 0.0000 0.0000 0.0000 0.0000 -12487.6443 1921.3245 0.0000 0.0000 1240.2370 -9326.0828 211.2066 -10566.3198 -9324.2228 211.2066 128.9272 205.9275 29233.2200 128.9272 205.9275
ENERGY: 800000 0.0000 0.0000 0.0000 0.0000 -11786.4876 1675.8835 0.0000 0.0000 1428.9627 -8681.6415 243.3458 -10110.6041 -8679.0441 240.2269 -192.2118 -132.0098 29321.8387 3.9605 3.8730
TCL: Running 100000 steps at 270 kelvin.
TCL: Setting parameter langevinTemp to 270
TCL: Running for 100000 steps
ETITLE: TS BOND ANGLE DIHED IMPRP ELECT VDW BOUNDARY MISC KINETIC TOTAL TEMP POTENTIAL TOTAL3 TEMPAVG PRESSURE GPRESSURE VOLUME PRESSAVG GPRESSAVG
ENERGY: 800000 0.0000 0.0000 0.0000 0.0000 -11786.4876 1675.8835 0.0000 0.0000 1428.2851 -8682.3190 243.2304 -10110.6041 -8679.9837 243.2304 -214.4881 -133.2276 29321.8387 -214.4881 -133.2276
ENERGY: 900000 0.0000 0.0000 0.0000 0.0000 -11294.3100 1494.2948 0.0000 0.0000 1577.3061 -8222.7091 268.6080 -9800.0152 -8218.9575 269.8951 -554.6242 -479.5584 29325.2322 4.6877 4.5063
TCL: Running 1000000 steps at 300 kelvin.
TCL: Setting parameter langevinTemp to 300
TCL: Running for 1000000 steps
ETITLE: TS BOND ANGLE DIHED IMPRP ELECT VDW BOUNDARY MISC KINETIC TOTAL TEMP POTENTIAL TOTAL3 TEMPAVG PRESSURE GPRESSURE VOLUME PRESSAVG GPRESSAVG
ENERGY: 900000 0.0000 0.0000 0.0000 0.0000 -11294.3100 1494.2948 0.0000 0.0000 1576.5178 -8223.4974 268.4737 -9800.0152 -8220.9266 268.4737 -564.1314 -478.6931 29325.2322 -564.1314 -478.6931
ENERGY: 1100000 0.0000 0.0000 0.0000 0.0000 -10881.0238 1545.4631 0.0000 0.0000 1708.6774 -7626.8833 290.9799 -9335.5607 -7623.0492 299.7933 678.8673 746.7424 30602.2322 2.8964 2.7569
ENERGY: 1300000 0.0000 0.0000 0.0000 0.0000 -10741.9854 1386.5331 0.0000 0.0000 1761.0117 -7594.4406 299.8922 -9355.4523 -7588.8525 300.5010 -370.3038 -275.8243 30491.2726 4.0159 3.8342
ENERGY: 1500000 0.0000 0.0000 0.0000 0.0000 -10874.8516 1488.1418 0.0000 0.0000 1730.0026 -7656.7072 294.6115 -9386.7098 -7651.7683 299.8763 252.1130 343.2164 30342.8461 2.3156 2.3531
ENERGY: 1700000 0.0000 0.0000 0.0000 0.0000 -10874.1386 1520.6193 0.0000 0.0000 1693.3269 -7660.1924 288.3658 -9353.5193 -7658.1837 300.0320 802.1113 838.9946 30151.0913 2.7047 2.8303
ENERGY: 1900000 0.0000 0.0000 0.0000 0.0000 -10690.8348 1355.9623 0.0000 0.0000 1754.7069 -7580.1657 298.8185 -9334.8725 -7576.4105 300.0172 -887.5186 -770.4420 31077.2501 3.4573 3.0558
TCL: Exiting due to exit command.
