Info: SIMULATION PARAMETERS:
Info: TIMESTEP               2
Info: NUMBER OF STEPS        0
Info: STEPS PER CYCLE        10
Info: PERIODIC CELL BASIS 1  39.416 0 0
Info: PERIODIC CELL BASIS 2  0 34.26 0
Info: PERIODIC CELL BASIS 3  0 0 32.492
Info: PERIODIC CELL CENTER   0 0 0
Info: WRAPPING WATERS AROUND PERIODIC BOUNDARIES ON OUTPUT.
Info: WRAPPING ALL CLUSTERS AROUND PERIODIC BOUNDARIES ON OUTPUT.
Info: FIRST LDB TIMESTEP     50
Info: LAST LDB TIMESTEP     -1
Info: HOM BACKGROUND SCALING 1
Info: PME BACKGROUND SCALING 1
Info: MIN ATOMS PER PATCH    40
Info: EMPTY PATCH LOAD       40 ATOMS
Info: INITIAL TEMPERATURE    300
Info: CENTER OF MASS MOVING INITIALLY? NO
Info: DIELECTRIC             1
Info: EXCLUDE                SCALED ONE-FOUR
Info: 1-4 ELECTROSTATICS SCALED BY 0.833333
Info: MODIFIED 1-4 VDW PARAMETERS WILL BE USED
Info: DCD FILENAME           mobley_2659552_equil.dcd
Info: DCD FREQUENCY          100000
Info: DCD FIRST STEP         100000
Info: DCD FILE WILL CONTAIN UNIT CELL DATA
Info: XST FILENAME           mobley_2659552_equil.xst
Info: XST FREQUENCY          100000
Info: NO VELOCITY DCD OUTPUT
Info: NO FORCE DCD OUTPUT
Info: OUTPUT FILENAME        mobley_2659552_equil
Info: BINARY OUTPUT FILES WILL BE USED
Info: RESTART FILENAME       mobley_2659552_equil.restart
Info: RESTART FREQUENCY      100000
Info: BINARY RESTART FILES WILL BE USED
Info: CUTOFF                 9
Info: PAIRLIST DISTANCE      11
Info: PAIRLIST SHRINK RATE   0.01
Info: PAIRLIST GROW RATE     0.01
Info: PAIRLIST TRIGGER       0.3
Info: PAIRLISTS PER CYCLE    2
Info: PAIRLISTS ENABLED
Info: MARGIN                 8
Info: HYDROGEN GROUP CUTOFF  2.5
Info: PATCH DIMENSION        21.5
Info: ENERGY OUTPUT STEPS    100000
Info: ENERGY EVALUATION STEPS    100000
Info: OUTPUT ENERGY PRECISION 4
Info: CROSSTERM ENERGY INCLUDED IN DIHEDRAL
Info: TIMING OUTPUT STEPS    1000000
Info: PRESSURE OUTPUT STEPS  100000
Info: FIXED ATOMS ACTIVE
Info: LANGEVIN DYNAMICS ACTIVE
Info: LANGEVIN TEMPERATURE   30
Info: LANGEVIN USING BBK INTEGRATOR
Info: LANGEVIN DAMPING COEFFICIENT IS 1 INVERSE PS
Info: LANGEVIN DYNAMICS APPLIED TO HYDROGENS
Info: LANGEVIN PISTON PRESSURE CONTROL ACTIVE
Info:        TARGET PRESSURE IS 1.01325 BAR
Info:     OSCILLATION PERIOD IS 50 FS
Info:             DECAY TIME IS 25 FS
Info:     PISTON TEMPERATURE IS 300 K
Info:       PRESSURE CONTROL IS GROUP-BASED
Info:    INITIAL STRAIN RATE IS 0 0 0
Info:       CELL FLUCTUATION IS ISOTROPIC
Info: PARTICLE MESH EWALD (PME) ACTIVE
Info: PME TOLERANCE               1e-06
Info: PME EWALD COEFFICIENT       0.348832
Info: PME INTERPOLATION ORDER     4
Info: PME GRID DIMENSIONS         40 36 36
Info: PME MAXIMUM GRID SPACING    1
Info: FULL ELECTROSTATIC EVALUATION FREQUENCY      2
Info: USING VERLET I (r-RESPA) MTS SCHEME.
Info: C1 SPLITTING OF LONG RANGE ELECTROSTATICS
Info: PLACING ATOMS IN PATCHES BY HYDROGEN GROUPS
Info: RIGID BONDS TO HYDROGEN : ALL
Info:         ERROR TOLERANCE : 1e-08
Info:          MAX ITERATIONS : 100
Info: RIGID WATER USING SETTLE ALGORITHM
Info: RANDOM NUMBER SEED     1744762900
Info: USE HYDROGEN BONDS?    NO
Info: Using AMBER format force field!
Info: AMBER PARM FILE        mobley_2659552.prmtop
Info: COORDINATE PDB         mobley_2659552.pdb
Info: Exclusions will be read from PARM file!
Info: SCNB (VDW SCALING)     2
Info: USING ARITHMETIC MEAN TO COMBINE L-J SIGMA PARAMETERS
Info: BINARY COORDINATES     mobley_2659552_min.coor
Info: SUMMARY OF PARAMETERS:
Info: 11 BONDS
Info: 13 ANGLES
Info:   13 HARMONIC
Info:   0 COSINE-BASED
Info: 6 DIHEDRAL
Info: 0 IMPROPER
Info: 0 CROSSTERM
Info: 0 VDW
Info: 45 VDW_PAIRS
Info: 0 NBTHOLE_PAIRS
Info: STRUCTURE SUMMARY:
Info: 2917 ATOMS
Info: 2917 BONDS
Info: 42 ANGLES
Info: 58 DIHEDRALS
Info: 0 IMPROPERS
Info: 0 CROSSTERMS
Info: 3006 EXCLUSIONS
Info: 25 FIXED ATOMS
Info: 2905 RIGID BONDS
Info: 13 RIGID BONDS BETWEEN FIXED ATOMS
Info: 5784 DEGREES OF FREEDOM
Info: 976 HYDROGEN GROUPS
Info: 4 ATOMS IN LARGEST HYDROGEN GROUP
Info: 976 MIGRATION GROUPS
Info: 4 ATOMS IN LARGEST MIGRATION GROUP
Info: 12 HYDROGEN GROUPS WITH ALL ATOMS FIXED
Info: TOTAL MASS = 17530.6 amu
Info: TOTAL CHARGE = -0.0002001 e
Info: MASS DENSITY = 0.663469 g/cm^3
Info: ATOM DENSITY = 0.0664814 atoms/A^3
Info: ADDED 0 IMPLICIT EXCLUSIONS
Info: NONBONDED TABLE R-SQUARED SPACING: 0.0625
Info: NONBONDED TABLE SIZE: 705 POINTS
Info: REMOVING COM VELOCITY -0.120547 -0.011029 -0.0893451
TCL: Running for 100000 steps
ETITLE: TS BOND ANGLE DIHED IMPRP ELECT VDW BOUNDARY MISC KINETIC TOTAL TEMP POTENTIAL TOTAL3 TEMPAVG PRESSURE GPRESSURE VOLUME PRESSAVG GPRESSAVG
ENERGY: 0 0.0000 0.0000 0.0000 0.0000 -13507.2730 2348.6634 0.0000 0.0000 1697.3696 -9461.2400 295.3511 -11158.6096 -9460.8925 295.3511 251.3292 283.0739 43876.9421 251.3292 283.0739
ENERGY: 100000 0.0000 0.0000 0.0000 0.0000 -13985.3084 2365.4528 0.0000 0.0000 174.9862 -11444.8694 30.4485 -11619.8556 -11444.4138 30.8759 -596.5246 -543.8159 29545.2001 4.9491 4.8913
TCL: Running 100000 steps at 60 kelvin.
TCL: Setting parameter langevinTemp to 60
TCL: Running for 100000 steps
ETITLE: TS BOND ANGLE DIHED IMPRP ELECT VDW BOUNDARY MISC KINETIC TOTAL TEMP POTENTIAL TOTAL3 TEMPAVG PRESSURE GPRESSURE VOLUME PRESSAVG GPRESSAVG
ENERGY: 100000 0.0000 0.0000 0.0000 0.0000 -13985.3084 2365.4528 0.0000 0.0000 174.8993 -11444.9563 30.4334 -11619.8556 -11444.5419 30.4334 -585.0305 -543.8419 29545.2001 -585.0305 -543.8419
ENERGY: 200000 0.0000 0.0000 0.0000 0.0000 -13998.1002 2444.8874 0.0000 0.0000 344.2151 -11208.9977 59.8952 -11553.2128 -11208.0845 59.8566 605.4353 643.6290 29014.2336 4.5126 4.5839
TCL: Running 100000 steps at 90 kelvin.
TCL: Setting parameter langevinTemp to 90
TCL: Running for 100000 steps
ETITLE: TS BOND ANGLE DIHED IMPRP ELECT VDW BOUNDARY MISC KINETIC TOTAL TEMP POTENTIAL TOTAL3 TEMPAVG PRESSURE GPRESSURE VOLUME PRESSAVG GPRESSAVG
ENERGY: 200000 0.0000 0.0000 0.0000 0.0000 -13998.1002 2444.8874 0.0000 0.0000 344.0424 -11209.1704 59.8651 -11553.2128 -11208.5819 59.8651 592.7817 643.6509 29014.2336 592.7817 643.6509
ENERGY: 300000 0.0000 0.0000 0.0000 0.0000 -13773.0504 2328.7579 0.0000 0.0000 520.7673 -10923.5252 90.6162 -11444.2925 -10922.4799 90.0027 118.2786 148.8330 29163.6583 4.6718 4.6463
TCL: Running 100000 steps at 120 kelvin.
TCL: Setting parameter langevinTemp to 120
TCL: Running for 100000 steps
ETITLE: TS BOND ANGLE DIHED IMPRP ELECT VDW BOUNDARY MISC KINETIC TOTAL TEMP POTENTIAL TOTAL3 TEMPAVG PRESSURE GPRESSURE VOLUME PRESSAVG GPRESSAVG
ENERGY: 300000 0.0000 0.0000 0.0000 0.0000 -13773.0504 2328.7579 0.0000 0.0000 520.5138 -10923.7788 90.5721 -11444.2925 -10922.8316 90.5721 102.9895 148.0690 29163.6583 102.9895 148.0690
ENERGY: 400000 0.0000 0.0000 0.0000 0.0000 -13590.0354 2276.1284 0.0000 0.0000 686.3946 -10627.5124 119.4362 -11313.9070 -10625.1699 119.9779 130.0072 163.8237 28887.4643 3.5702 3.5783
TCL: Running 100000 steps at 150 kelvin.
TCL: Setting parameter langevinTemp to 150
TCL: Running for 100000 steps
ETITLE: TS BOND ANGLE DIHED IMPRP ELECT VDW BOUNDARY MISC KINETIC TOTAL TEMP POTENTIAL TOTAL3 TEMPAVG PRESSURE GPRESSURE VOLUME PRESSAVG GPRESSAVG
ENERGY: 400000 0.0000 0.0000 0.0000 0.0000 -13590.0354 2276.1284 0.0000 0.0000 686.0463 -10627.8607 119.3756 -11313.9070 -10626.8032 119.3756 121.2189 164.7525 28887.4643 121.2189 164.7525
ENERGY: 500000 0.0000 0.0000 0.0000 0.0000 -13334.3684 2158.3852 0.0000 0.0000 881.1419 -10294.8413 153.3232 -11175.9832 -10292.6057 150.0665 -391.3683 -340.8406 28930.8399 3.0990 3.0834
TCL: Running 100000 steps at 180 kelvin.
TCL: Setting parameter langevinTemp to 180
TCL: Running for 100000 steps
ETITLE: TS BOND ANGLE DIHED IMPRP ELECT VDW BOUNDARY MISC KINETIC TOTAL TEMP POTENTIAL TOTAL3 TEMPAVG PRESSURE GPRESSURE VOLUME PRESSAVG GPRESSAVG
ENERGY: 500000 0.0000 0.0000 0.0000 0.0000 -13334.3684 2158.3852 0.0000 0.0000 880.6997 -10295.2835 153.2463 -11175.9832 -10293.5982 153.2463 -409.1194 -340.4406 28930.8399 -409.1194 -340.4406
ENERGY: 600000 0.0000 0.0000 0.0000 0.0000 -13020.0051 2102.7012 0.0000 0.0000 1040.6426 -9876.6613 181.0772 -10917.3038 -9874.3614 179.8447 197.9730 277.2391 28362.2688 2.6149 2.6165
TCL: Running 100000 steps at 210 kelvin.
TCL: Setting parameter langevinTemp to 210
TCL: Running for 100000 steps
ETITLE: TS BOND ANGLE DIHED IMPRP ELECT VDW BOUNDARY MISC KINETIC TOTAL TEMP POTENTIAL TOTAL3 TEMPAVG PRESSURE GPRESSURE VOLUME PRESSAVG GPRESSAVG
ENERGY: 600000 0.0000 0.0000 0.0000 0.0000 -13020.0051 2102.7012 0.0000 0.0000 1040.1485 -9877.1553 180.9912 -10917.3038 -9875.0551 180.9912 207.7668 276.5178 28362.2688 207.7668 276.5178
ENERGY: 700000 0.0000 0.0000 0.0000 0.0000 -12413.7196 1909.1049 0.0000 0.0000 1205.6987 -9298.9160 209.7978 -10504.6147 -9295.9819 210.1526 316.3955 377.6802 28224.0150 3.8707 3.9679
TCL: Running 100000 steps at 240 kelvin.
TCL: Setting parameter langevinTemp to 240
TCL: Running for 100000 steps
ETITLE: TS BOND ANGLE DIHED IMPRP ELECT VDW BOUNDARY MISC KINETIC TOTAL TEMP POTENTIAL TOTAL3 TEMPAVG PRESSURE GPRESSURE VOLUME PRESSAVG GPRESSAVG
ENERGY: 700000 0.0000 0.0000 0.0000 0.0000 -12413.7196 1909.1049 0.0000 0.0000 1205.1069 -9299.5078 209.6948 -10504.6147 -9297.4351 209.6948 294.7692 377.9736 28224.0150 294.7692 377.9736
ENERGY: 800000 0.0000 0.0000 0.0000 0.0000 -11659.9136 1574.7746 0.0000 0.0000 1347.0655 -8738.0735 234.3963 -10085.1390 -8735.2381 239.7990 -1222.3337 -1142.5014 28866.8201 2.6445 2.5781
TCL: Running 100000 steps at 270 kelvin.
TCL: Setting parameter langevinTemp to 270
TCL: Running for 100000 steps
ETITLE: TS BOND ANGLE DIHED IMPRP ELECT VDW BOUNDARY MISC KINETIC TOTAL TEMP POTENTIAL TOTAL3 TEMPAVG PRESSURE GPRESSURE VOLUME PRESSAVG GPRESSAVG
ENERGY: 800000 0.0000 0.0000 0.0000 0.0000 -11659.9136 1574.7746 0.0000 0.0000 1346.4013 -8738.7377 234.2808 -10085.1390 -8735.6942 234.2808 -1227.7761 -1144.1946 28866.8201 -1227.7761 -1144.1946
ENERGY: 900000 0.0000 0.0000 0.0000 0.0000 -11174.8580 1547.7236 0.0000 0.0000 1581.4428 -8045.6916 275.1792 -9627.1344 -8042.2049 270.3059 25.2002 84.1913 29255.6838 3.1352 3.2481
TCL: Running 1000000 steps at 300 kelvin.
TCL: Setting parameter langevinTemp to 300
TCL: Running for 1000000 steps
ETITLE: TS BOND ANGLE DIHED IMPRP ELECT VDW BOUNDARY MISC KINETIC TOTAL TEMP POTENTIAL TOTAL3 TEMPAVG PRESSURE GPRESSURE VOLUME PRESSAVG GPRESSAVG
ENERGY: 900000 0.0000 0.0000 0.0000 0.0000 -11174.8580 1547.7236 0.0000 0.0000 1580.6555 -8046.4789 275.0422 -9627.1344 -8044.1287 275.0422 -17.5110 84.5251 29255.6838 -17.5110 84.5251
ENERGY: 1100000 0.0000 0.0000 0.0000 0.0000 -10612.8031 1373.3382 0.0000 0.0000 1684.2258 -7555.2391 293.0640 -9239.4649 -7551.1917 300.6394 -295.2951 -224.1474 29939.2658 3.3559 3.1808
ENERGY: 1300000 0.0000 0.0000 0.0000 0.0000 -10495.5891 1361.8554 0.0000 0.0000 1771.6554 -7362.0783 308.2772 -9133.7337 -7358.7810 300.2100 -513.0152 -387.5648 30524.9845 2.6578 2.7817
ENERGY: 1500000 0.0000 0.0000 0.0000 0.0000 -10439.8448 1322.0930 0.0000 0.0000 1743.5447 -7374.2071 303.3858 -9117.7518 -7372.8228 299.8612 -547.2852 -443.6545 30476.2363 2.5340 2.6398
ENERGY: 1700000 0.0000 0.0000 0.0000 0.0000 -10588.0358 1394.1420 0.0000 0.0000 1701.6782 -7492.2157 296.1008 -9193.8939 -7489.0131 299.6691 13.9771 78.2423 29667.1379 3.1001 2.9980
ENERGY: 1900000 0.0000 0.0000 0.0000 0.0000 -10548.8833 1370.5294 0.0000 0.0000 1731.2033 -7447.1506 301.2383 -9178.3539 -7443.6713 300.7277 -89.5813 -27.8129 29876.2107 3.3362 3.3038
TCL: Exiting due to exit command.
