Info: SIMULATION PARAMETERS:
Info: TIMESTEP               2
Info: NUMBER OF STEPS        0
Info: STEPS PER CYCLE        10
Info: PERIODIC CELL BASIS 1  36.592 0 0
Info: PERIODIC CELL BASIS 2  0 34.696 0
Info: PERIODIC CELL BASIS 3  0 0 34.68
Info: PERIODIC CELL CENTER   0 0 0
Info: WRAPPING WATERS AROUND PERIODIC BOUNDARIES ON OUTPUT.
Info: WRAPPING ALL CLUSTERS AROUND PERIODIC BOUNDARIES ON OUTPUT.
Info: FIRST LDB TIMESTEP     50
Info: LAST LDB TIMESTEP     -1
Info: HOM BACKGROUND SCALING 1
Info: PME BACKGROUND SCALING 1
Info: MIN ATOMS PER PATCH    40
Info: EMPTY PATCH LOAD       40 ATOMS
Info: INITIAL TEMPERATURE    300
Info: CENTER OF MASS MOVING INITIALLY? NO
Info: DIELECTRIC             1
Info: EXCLUDE                SCALED ONE-FOUR
Info: 1-4 ELECTROSTATICS SCALED BY 0.833333
Info: MODIFIED 1-4 VDW PARAMETERS WILL BE USED
Info: DCD FILENAME           mobley_9671033_equil.dcd
Info: DCD FREQUENCY          100000
Info: DCD FIRST STEP         100000
Info: DCD FILE WILL CONTAIN UNIT CELL DATA
Info: XST FILENAME           mobley_9671033_equil.xst
Info: XST FREQUENCY          100000
Info: NO VELOCITY DCD OUTPUT
Info: NO FORCE DCD OUTPUT
Info: OUTPUT FILENAME        mobley_9671033_equil
Info: BINARY OUTPUT FILES WILL BE USED
Info: RESTART FILENAME       mobley_9671033_equil.restart
Info: RESTART FREQUENCY      100000
Info: BINARY RESTART FILES WILL BE USED
Info: CUTOFF                 9
Info: PAIRLIST DISTANCE      11
Info: PAIRLIST SHRINK RATE   0.01
Info: PAIRLIST GROW RATE     0.01
Info: PAIRLIST TRIGGER       0.3
Info: PAIRLISTS PER CYCLE    2
Info: PAIRLISTS ENABLED
Info: MARGIN                 8
Info: HYDROGEN GROUP CUTOFF  2.5
Info: PATCH DIMENSION        21.5
Info: ENERGY OUTPUT STEPS    100000
Info: ENERGY EVALUATION STEPS    100000
Info: OUTPUT ENERGY PRECISION 4
Info: CROSSTERM ENERGY INCLUDED IN DIHEDRAL
Info: TIMING OUTPUT STEPS    1000000
Info: PRESSURE OUTPUT STEPS  100000
Info: FIXED ATOMS ACTIVE
Info: LANGEVIN DYNAMICS ACTIVE
Info: LANGEVIN TEMPERATURE   30
Info: LANGEVIN USING BBK INTEGRATOR
Info: LANGEVIN DAMPING COEFFICIENT IS 1 INVERSE PS
Info: LANGEVIN DYNAMICS APPLIED TO HYDROGENS
Info: LANGEVIN PISTON PRESSURE CONTROL ACTIVE
Info:        TARGET PRESSURE IS 1.01325 BAR
Info:     OSCILLATION PERIOD IS 50 FS
Info:             DECAY TIME IS 25 FS
Info:     PISTON TEMPERATURE IS 300 K
Info:       PRESSURE CONTROL IS GROUP-BASED
Info:    INITIAL STRAIN RATE IS 0 0 0
Info:       CELL FLUCTUATION IS ISOTROPIC
Info: PARTICLE MESH EWALD (PME) ACTIVE
Info: PME TOLERANCE               1e-06
Info: PME EWALD COEFFICIENT       0.348832
Info: PME INTERPOLATION ORDER     4
Info: PME GRID DIMENSIONS         40 36 36
Info: PME MAXIMUM GRID SPACING    1
Info: FULL ELECTROSTATIC EVALUATION FREQUENCY      2
Info: USING VERLET I (r-RESPA) MTS SCHEME.
Info: C1 SPLITTING OF LONG RANGE ELECTROSTATICS
Info: PLACING ATOMS IN PATCHES BY HYDROGEN GROUPS
Info: RIGID BONDS TO HYDROGEN : ALL
Info:         ERROR TOLERANCE : 1e-08
Info:          MAX ITERATIONS : 100
Info: RIGID WATER USING SETTLE ALGORITHM
Info: RANDOM NUMBER SEED     1744764564
Info: USE HYDROGEN BONDS?    NO
Info: Using AMBER format force field!
Info: AMBER PARM FILE        mobley_9671033.prmtop
Info: COORDINATE PDB         mobley_9671033.pdb
Info: Exclusions will be read from PARM file!
Info: SCNB (VDW SCALING)     2
Info: USING ARITHMETIC MEAN TO COMBINE L-J SIGMA PARAMETERS
Info: BINARY COORDINATES     mobley_9671033_min.coor
Info: SUMMARY OF PARAMETERS:
Info: 7 BONDS
Info: 9 ANGLES
Info:   9 HARMONIC
Info:   0 COSINE-BASED
Info: 4 DIHEDRAL
Info: 0 IMPROPER
Info: 0 CROSSTERM
Info: 0 VDW
Info: 28 VDW_PAIRS
Info: 0 NBTHOLE_PAIRS
Info: STRUCTURE SUMMARY:
Info: 2935 ATOMS
Info: 2934 BONDS
Info: 21 ANGLES
Info: 24 DIHEDRALS
Info: 0 IMPROPERS
Info: 0 CROSSTERMS
Info: 2979 EXCLUSIONS
Info: 13 FIXED ATOMS
Info: 2929 RIGID BONDS
Info: 7 RIGID BONDS BETWEEN FIXED ATOMS
Info: 5844 DEGREES OF FREEDOM
Info: 980 HYDROGEN GROUPS
Info: 4 ATOMS IN LARGEST HYDROGEN GROUP
Info: 980 MIGRATION GROUPS
Info: 4 ATOMS IN LARGEST MIGRATION GROUP
Info: 6 HYDROGEN GROUPS WITH ALL ATOMS FIXED
Info: TOTAL MASS = 17636.7 amu
Info: TOTAL CHARGE = -4.47035e-08 e
Info: MASS DENSITY = 0.665168 g/cm^3
Info: ATOM DENSITY = 0.0666597 atoms/A^3
Info: ADDED 0 IMPLICIT EXCLUSIONS
Info: NONBONDED TABLE R-SQUARED SPACING: 0.0625
Info: NONBONDED TABLE SIZE: 705 POINTS
Info: REMOVING COM VELOCITY -0.0752886 0.0170372 -0.00398647
TCL: Running for 100000 steps
ETITLE: TS BOND ANGLE DIHED IMPRP ELECT VDW BOUNDARY MISC KINETIC TOTAL TEMP POTENTIAL TOTAL3 TEMPAVG PRESSURE GPRESSURE VOLUME PRESSAVG GPRESSAVG
ENERGY: 0 0.0000 0.0000 0.0000 0.0000 -13583.0734 2379.9977 0.0000 0.0000 1699.2797 -9503.7959 292.6477 -11203.0756 -9503.4396 292.6477 328.9781 363.0307 44029.5904 328.9781 363.0307
ENERGY: 100000 0.0000 0.0000 0.0000 0.0000 -14141.4060 2485.0173 0.0000 0.0000 172.6011 -11483.7876 29.7251 -11656.3888 -11483.3790 30.9222 343.5804 407.7720 29101.2764 4.0363 4.0891
TCL: Running 100000 steps at 60 kelvin.
TCL: Setting parameter langevinTemp to 60
TCL: Running for 100000 steps
ETITLE: TS BOND ANGLE DIHED IMPRP ELECT VDW BOUNDARY MISC KINETIC TOTAL TEMP POTENTIAL TOTAL3 TEMPAVG PRESSURE GPRESSURE VOLUME PRESSAVG GPRESSAVG
ENERGY: 100000 0.0000 0.0000 0.0000 0.0000 -14141.4060 2485.0173 0.0000 0.0000 172.5144 -11483.8744 29.7102 -11656.3888 -11483.5530 29.7102 351.2678 407.7267 29101.2764 351.2678 407.7267
ENERGY: 200000 0.0000 0.0000 0.0000 0.0000 -14042.4611 2390.0201 0.0000 0.0000 356.2576 -11296.1834 61.3542 -11652.4410 -11295.2034 59.9527 -249.0419 -196.0820 28484.6327 3.2891 3.3740
TCL: Running 100000 steps at 90 kelvin.
TCL: Setting parameter langevinTemp to 90
TCL: Running for 100000 steps
ETITLE: TS BOND ANGLE DIHED IMPRP ELECT VDW BOUNDARY MISC KINETIC TOTAL TEMP POTENTIAL TOTAL3 TEMPAVG PRESSURE GPRESSURE VOLUME PRESSAVG GPRESSAVG
ENERGY: 200000 0.0000 0.0000 0.0000 0.0000 -14042.4611 2390.0201 0.0000 0.0000 356.0888 -11296.3522 61.3251 -11652.4410 -11295.5206 61.3251 -250.2097 -196.0710 28484.6327 -250.2097 -196.0710
ENERGY: 300000 0.0000 0.0000 0.0000 0.0000 -13938.2148 2398.3447 0.0000 0.0000 509.4749 -11030.3952 87.7411 -11539.8702 -11028.9816 90.1522 186.5115 257.3145 28529.4508 4.0871 4.1565
TCL: Running 100000 steps at 120 kelvin.
TCL: Setting parameter langevinTemp to 120
TCL: Running for 100000 steps
ETITLE: TS BOND ANGLE DIHED IMPRP ELECT VDW BOUNDARY MISC KINETIC TOTAL TEMP POTENTIAL TOTAL3 TEMPAVG PRESSURE GPRESSURE VOLUME PRESSAVG GPRESSAVG
ENERGY: 300000 0.0000 0.0000 0.0000 0.0000 -13938.2148 2398.3447 0.0000 0.0000 509.2060 -11030.6642 87.6948 -11539.8702 -11029.7828 87.6948 193.0017 256.9723 28529.4508 193.0017 256.9723
ENERGY: 400000 0.0000 0.0000 0.0000 0.0000 -13659.8472 2257.1095 0.0000 0.0000 682.7450 -10719.9927 117.5814 -11402.7377 -10718.5837 119.9467 -550.2234 -471.7265 28885.7194 3.5756 3.5060
TCL: Running 100000 steps at 150 kelvin.
TCL: Setting parameter langevinTemp to 150
TCL: Running for 100000 steps
ETITLE: TS BOND ANGLE DIHED IMPRP ELECT VDW BOUNDARY MISC KINETIC TOTAL TEMP POTENTIAL TOTAL3 TEMPAVG PRESSURE GPRESSURE VOLUME PRESSAVG GPRESSAVG
ENERGY: 400000 0.0000 0.0000 0.0000 0.0000 -13659.8472 2257.1095 0.0000 0.0000 682.3865 -10720.3512 117.5197 -11402.7377 -10719.0474 117.5197 -511.3688 -470.8010 28885.7194 -511.3688 -470.8010
ENERGY: 500000 0.0000 0.0000 0.0000 0.0000 -13595.3430 2366.6843 0.0000 0.0000 909.8691 -10318.7897 156.6964 -11228.6588 -10315.9756 150.0967 998.3779 1063.5541 28730.8852 3.4095 3.3147
TCL: Running 100000 steps at 180 kelvin.
TCL: Setting parameter langevinTemp to 180
TCL: Running for 100000 steps
ETITLE: TS BOND ANGLE DIHED IMPRP ELECT VDW BOUNDARY MISC KINETIC TOTAL TEMP POTENTIAL TOTAL3 TEMPAVG PRESSURE GPRESSURE VOLUME PRESSAVG GPRESSAVG
ENERGY: 500000 0.0000 0.0000 0.0000 0.0000 -13595.3430 2366.6843 0.0000 0.0000 909.4348 -10319.2240 156.6216 -11228.6588 -10317.4420 156.6216 1002.6750 1063.5904 28730.8852 1002.6750 1063.5904
ENERGY: 600000 0.0000 0.0000 0.0000 0.0000 -13117.4804 2112.2816 0.0000 0.0000 1046.3533 -9958.8456 180.2015 -11005.1988 -9955.5758 179.9052 -27.1266 23.1796 28579.2801 6.2612 6.1476
TCL: Running 100000 steps at 210 kelvin.
TCL: Setting parameter langevinTemp to 210
TCL: Running for 100000 steps
ETITLE: TS BOND ANGLE DIHED IMPRP ELECT VDW BOUNDARY MISC KINETIC TOTAL TEMP POTENTIAL TOTAL3 TEMPAVG PRESSURE GPRESSURE VOLUME PRESSAVG GPRESSAVG
ENERGY: 600000 0.0000 0.0000 0.0000 0.0000 -13117.4804 2112.2816 0.0000 0.0000 1045.8365 -9959.3624 180.1125 -11005.1988 -9957.3495 180.1125 -35.2705 24.7214 28579.2801 -35.2705 24.7214
ENERGY: 700000 0.0000 0.0000 0.0000 0.0000 -12163.8617 1711.2699 0.0000 0.0000 1224.7572 -9227.8346 210.9260 -10452.5917 -9227.0812 209.5163 -1284.4666 -1202.4010 28712.3978 3.0940 3.1621
TCL: Running 100000 steps at 240 kelvin.
TCL: Setting parameter langevinTemp to 240
TCL: Running for 100000 steps
ETITLE: TS BOND ANGLE DIHED IMPRP ELECT VDW BOUNDARY MISC KINETIC TOTAL TEMP POTENTIAL TOTAL3 TEMPAVG PRESSURE GPRESSURE VOLUME PRESSAVG GPRESSAVG
ENERGY: 700000 0.0000 0.0000 0.0000 0.0000 -12163.8617 1711.2699 0.0000 0.0000 1224.1361 -9228.4557 210.8191 -10452.5917 -9226.5707 210.8191 -1298.9726 -1204.5426 28712.3978 -1298.9726 -1204.5426
ENERGY: 800000 0.0000 0.0000 0.0000 0.0000 -11687.0746 1685.0255 0.0000 0.0000 1410.7905 -8591.2586 242.9644 -10002.0491 -8586.0685 240.2197 -130.1179 -126.0231 29195.5545 4.3545 4.3205
TCL: Running 100000 steps at 270 kelvin.
TCL: Setting parameter langevinTemp to 270
TCL: Running for 100000 steps
ETITLE: TS BOND ANGLE DIHED IMPRP ELECT VDW BOUNDARY MISC KINETIC TOTAL TEMP POTENTIAL TOTAL3 TEMPAVG PRESSURE GPRESSURE VOLUME PRESSAVG GPRESSAVG
ENERGY: 800000 0.0000 0.0000 0.0000 0.0000 -11687.0746 1685.0255 0.0000 0.0000 1410.0650 -8591.9841 242.8395 -10002.0491 -8589.7711 242.8395 -192.6043 -124.3156 29195.5545 -192.6043 -124.3156
ENERGY: 900000 0.0000 0.0000 0.0000 0.0000 -11219.1254 1616.4925 0.0000 0.0000 1526.5306 -8076.1023 262.8970 -9602.6329 -8074.1675 269.6770 411.6958 478.8953 29700.1611 2.2567 2.3329
TCL: Running 1000000 steps at 300 kelvin.
TCL: Setting parameter langevinTemp to 300
TCL: Running for 1000000 steps
ETITLE: TS BOND ANGLE DIHED IMPRP ELECT VDW BOUNDARY MISC KINETIC TOTAL TEMP POTENTIAL TOTAL3 TEMPAVG PRESSURE GPRESSURE VOLUME PRESSAVG GPRESSAVG
ENERGY: 900000 0.0000 0.0000 0.0000 0.0000 -11219.1253 1616.4925 0.0000 0.0000 1525.7312 -8076.9016 262.7594 -9602.6329 -8074.8016 262.7594 408.0717 479.8814 29700.1611 408.0717 479.8814
ENERGY: 1100000 0.0000 0.0000 0.0000 0.0000 -10623.7924 1354.8775 0.0000 0.0000 1728.4603 -7540.4547 297.6731 -9268.9149 -7537.4343 300.7065 -809.1305 -712.9187 30434.9995 2.0005 1.9536
ENERGY: 1300000 0.0000 0.0000 0.0000 0.0000 -10710.7135 1476.9377 0.0000 0.0000 1792.5018 -7441.2739 308.7022 -9233.7757 -7438.8847 300.0940 402.2654 504.4369 30087.8745 4.0788 3.9121
ENERGY: 1500000 0.0000 0.0000 0.0000 0.0000 -10723.4119 1454.8662 0.0000 0.0000 1756.6747 -7511.8710 302.5321 -9268.5457 -7510.4249 300.4274 525.2985 554.5909 29654.4808 4.9002 4.7343
ENERGY: 1700000 0.0000 0.0000 0.0000 0.0000 -10636.3022 1389.4666 0.0000 0.0000 1735.1741 -7511.6615 298.8293 -9246.8356 -7508.1878 300.0600 -599.6513 -474.1130 30791.1039 3.0411 2.9233
ENERGY: 1900000 0.0000 0.0000 0.0000 0.0000 -10672.8858 1410.9977 0.0000 0.0000 1772.9695 -7488.9186 305.3384 -9261.8880 -7486.5341 300.3560 -246.6944 -156.5625 30168.8818 2.5189 2.4502
TCL: Exiting due to exit command.
