Info: SIMULATION PARAMETERS:
Info: TIMESTEP               2
Info: NUMBER OF STEPS        0
Info: STEPS PER CYCLE        10
Info: PERIODIC CELL BASIS 1  36.592 0 0
Info: PERIODIC CELL BASIS 2  0 35.132 0
Info: PERIODIC CELL BASIS 3  0 0 34.471
Info: PERIODIC CELL CENTER   0 0 0
Info: WRAPPING WATERS AROUND PERIODIC BOUNDARIES ON OUTPUT.
Info: WRAPPING ALL CLUSTERS AROUND PERIODIC BOUNDARIES ON OUTPUT.
Info: FIRST LDB TIMESTEP     50
Info: LAST LDB TIMESTEP     -1
Info: HOM BACKGROUND SCALING 1
Info: PME BACKGROUND SCALING 1
Info: MIN ATOMS PER PATCH    40
Info: EMPTY PATCH LOAD       40 ATOMS
Info: INITIAL TEMPERATURE    300
Info: CENTER OF MASS MOVING INITIALLY? NO
Info: DIELECTRIC             1
Info: EXCLUDE                SCALED ONE-FOUR
Info: 1-4 ELECTROSTATICS SCALED BY 0.833333
Info: MODIFIED 1-4 VDW PARAMETERS WILL BE USED
Info: DCD FILENAME           mobley_4561957_equil.dcd
Info: DCD FREQUENCY          100000
Info: DCD FIRST STEP         100000
Info: DCD FILE WILL CONTAIN UNIT CELL DATA
Info: XST FILENAME           mobley_4561957_equil.xst
Info: XST FREQUENCY          100000
Info: NO VELOCITY DCD OUTPUT
Info: NO FORCE DCD OUTPUT
Info: OUTPUT FILENAME        mobley_4561957_equil
Info: BINARY OUTPUT FILES WILL BE USED
Info: RESTART FILENAME       mobley_4561957_equil.restart
Info: RESTART FREQUENCY      100000
Info: BINARY RESTART FILES WILL BE USED
Info: CUTOFF                 9
Info: PAIRLIST DISTANCE      11
Info: PAIRLIST SHRINK RATE   0.01
Info: PAIRLIST GROW RATE     0.01
Info: PAIRLIST TRIGGER       0.3
Info: PAIRLISTS PER CYCLE    2
Info: PAIRLISTS ENABLED
Info: MARGIN                 8
Info: HYDROGEN GROUP CUTOFF  2.5
Info: PATCH DIMENSION        21.5
Info: ENERGY OUTPUT STEPS    100000
Info: ENERGY EVALUATION STEPS    100000
Info: OUTPUT ENERGY PRECISION 4
Info: CROSSTERM ENERGY INCLUDED IN DIHEDRAL
Info: TIMING OUTPUT STEPS    1000000
Info: PRESSURE OUTPUT STEPS  100000
Info: FIXED ATOMS ACTIVE
Info: LANGEVIN DYNAMICS ACTIVE
Info: LANGEVIN TEMPERATURE   30
Info: LANGEVIN USING BBK INTEGRATOR
Info: LANGEVIN DAMPING COEFFICIENT IS 1 INVERSE PS
Info: LANGEVIN DYNAMICS APPLIED TO HYDROGENS
Info: LANGEVIN PISTON PRESSURE CONTROL ACTIVE
Info:        TARGET PRESSURE IS 1.01325 BAR
Info:     OSCILLATION PERIOD IS 50 FS
Info:             DECAY TIME IS 25 FS
Info:     PISTON TEMPERATURE IS 300 K
Info:       PRESSURE CONTROL IS GROUP-BASED
Info:    INITIAL STRAIN RATE IS 0 0 0
Info:       CELL FLUCTUATION IS ISOTROPIC
Info: PARTICLE MESH EWALD (PME) ACTIVE
Info: PME TOLERANCE               1e-06
Info: PME EWALD COEFFICIENT       0.348832
Info: PME INTERPOLATION ORDER     4
Info: PME GRID DIMENSIONS         40 36 36
Info: PME MAXIMUM GRID SPACING    1
Info: FULL ELECTROSTATIC EVALUATION FREQUENCY      2
Info: USING VERLET I (r-RESPA) MTS SCHEME.
Info: C1 SPLITTING OF LONG RANGE ELECTROSTATICS
Info: PLACING ATOMS IN PATCHES BY HYDROGEN GROUPS
Info: RIGID BONDS TO HYDROGEN : ALL
Info:         ERROR TOLERANCE : 1e-08
Info:          MAX ITERATIONS : 100
Info: RIGID WATER USING SETTLE ALGORITHM
Info: RANDOM NUMBER SEED     1744721547
Info: USE HYDROGEN BONDS?    NO
Info: Using AMBER format force field!
Info: AMBER PARM FILE        mobley_4561957.prmtop
Info: COORDINATE PDB         mobley_4561957.pdb
Info: Exclusions will be read from PARM file!
Info: SCNB (VDW SCALING)     2
Info: USING ARITHMETIC MEAN TO COMBINE L-J SIGMA PARAMETERS
Info: BINARY COORDINATES     mobley_4561957_min.coor
Info: SUMMARY OF PARAMETERS:
Info: 4 BONDS
Info: 3 ANGLES
Info:   3 HARMONIC
Info:   0 COSINE-BASED
Info: 5 DIHEDRAL
Info: 0 IMPROPER
Info: 0 CROSSTERM
Info: 0 VDW
Info: 10 VDW_PAIRS
Info: 0 NBTHOLE_PAIRS
Info: STRUCTURE SUMMARY:
Info: 2954 ATOMS
Info: 2953 BONDS
Info: 36 ANGLES
Info: 53 DIHEDRALS
Info: 0 IMPROPERS
Info: 0 CROSSTERMS
Info: 3034 EXCLUSIONS
Info: 20 FIXED ATOMS
Info: 2948 RIGID BONDS
Info: 14 RIGID BONDS BETWEEN FIXED ATOMS
Info: 5868 DEGREES OF FREEDOM
Info: 984 HYDROGEN GROUPS
Info: 4 ATOMS IN LARGEST HYDROGEN GROUP
Info: 984 MIGRATION GROUPS
Info: 4 ATOMS IN LARGEST MIGRATION GROUP
Info: 6 HYDROGEN GROUPS WITH ALL ATOMS FIXED
Info: TOTAL MASS = 17705.8 amu
Info: TOTAL CHARGE = 0.00060001 e
Info: MASS DENSITY = 0.663487 g/cm^3
Info: ATOM DENSITY = 0.0666603 atoms/A^3
Info: ADDED 0 IMPLICIT EXCLUSIONS
Info: NONBONDED TABLE R-SQUARED SPACING: 0.0625
Info: NONBONDED TABLE SIZE: 705 POINTS
Info: REMOVING COM VELOCITY -0.22474 0.0749052 -0.176802
TCL: Running for 100000 steps
ETITLE: TS BOND ANGLE DIHED IMPRP ELECT VDW BOUNDARY MISC KINETIC TOTAL TEMP POTENTIAL TOTAL3 TEMPAVG PRESSURE GPRESSURE VOLUME PRESSAVG GPRESSAVG
ENERGY: 0 0.0000 0.0000 0.0000 0.0000 -13581.5906 2369.9619 0.0000 0.0000 1800.9235 -9410.7052 308.8841 -11211.6287 -9410.3394 308.8841 327.6513 363.2317 44314.1990 327.6513 363.2317
ENERGY: 100000 0.0000 0.0000 0.0000 0.0000 -14196.3285 2484.5828 0.0000 0.0000 175.0678 -11536.6779 30.0266 -11711.7457 -11536.6131 30.9682 123.6034 182.0470 29067.0829 3.1707 3.1443
TCL: Running 100000 steps at 60 kelvin.
TCL: Setting parameter langevinTemp to 60
TCL: Running for 100000 steps
ETITLE: TS BOND ANGLE DIHED IMPRP ELECT VDW BOUNDARY MISC KINETIC TOTAL TEMP POTENTIAL TOTAL3 TEMPAVG PRESSURE GPRESSURE VOLUME PRESSAVG GPRESSAVG
ENERGY: 100000 0.0000 0.0000 0.0000 0.0000 -14196.3285 2484.5828 0.0000 0.0000 174.9822 -11536.7636 30.0119 -11711.7457 -11536.4023 30.0119 123.7610 181.7022 29067.0829 123.7610 181.7022
ENERGY: 200000 0.0000 0.0000 0.0000 0.0000 -14175.6316 2525.4717 0.0000 0.0000 352.0258 -11298.1341 60.3775 -11650.1599 -11297.5482 59.7940 811.1956 848.0742 28758.9768 3.5261 3.5532
TCL: Running 100000 steps at 90 kelvin.
TCL: Setting parameter langevinTemp to 90
TCL: Running for 100000 steps
ETITLE: TS BOND ANGLE DIHED IMPRP ELECT VDW BOUNDARY MISC KINETIC TOTAL TEMP POTENTIAL TOTAL3 TEMPAVG PRESSURE GPRESSURE VOLUME PRESSAVG GPRESSAVG
ENERGY: 200000 0.0000 0.0000 0.0000 0.0000 -14175.6316 2525.4717 0.0000 0.0000 351.8487 -11298.3113 60.3471 -11650.1599 -11297.6968 60.3471 796.5285 848.2193 28758.9768 796.5285 848.2193
ENERGY: 300000 0.0000 0.0000 0.0000 0.0000 -14015.2397 2439.3683 0.0000 0.0000 528.8264 -11047.0449 90.7013 -11575.8714 -11046.3436 90.1211 489.5575 559.3876 28497.3089 3.2043 3.2223
TCL: Running 100000 steps at 120 kelvin.
TCL: Setting parameter langevinTemp to 120
TCL: Running for 100000 steps
ETITLE: TS BOND ANGLE DIHED IMPRP ELECT VDW BOUNDARY MISC KINETIC TOTAL TEMP POTENTIAL TOTAL3 TEMPAVG PRESSURE GPRESSURE VOLUME PRESSAVG GPRESSAVG
ENERGY: 300000 0.0000 0.0000 0.0000 0.0000 -14015.2397 2439.3683 0.0000 0.0000 528.5714 -11047.3000 90.6575 -11575.8714 -11046.2325 90.6575 507.4969 559.1340 28497.3089 507.4969 559.1340
ENERGY: 400000 0.0000 0.0000 0.0000 0.0000 -13747.0220 2312.5351 0.0000 0.0000 667.7616 -10766.7253 114.5307 -11434.4869 -10764.6341 119.9990 -178.0941 -147.1232 28794.7130 3.6237 3.6463
TCL: Running 100000 steps at 150 kelvin.
TCL: Setting parameter langevinTemp to 150
TCL: Running for 100000 steps
ETITLE: TS BOND ANGLE DIHED IMPRP ELECT VDW BOUNDARY MISC KINETIC TOTAL TEMP POTENTIAL TOTAL3 TEMPAVG PRESSURE GPRESSURE VOLUME PRESSAVG GPRESSAVG
ENERGY: 400000 0.0000 0.0000 0.0000 0.0000 -13747.0220 2312.5351 0.0000 0.0000 667.4185 -10767.0684 114.4718 -11434.4869 -10765.8033 114.4718 -192.8110 -147.2837 28794.7130 -192.8110 -147.2837
ENERGY: 500000 0.0000 0.0000 0.0000 0.0000 -13467.4418 2201.8829 0.0000 0.0000 895.0582 -10370.5008 153.5153 -11265.5589 -10369.4044 150.0078 -335.5905 -296.7890 28749.9535 3.8850 3.9764
TCL: Running 100000 steps at 180 kelvin.
TCL: Setting parameter langevinTemp to 180
TCL: Running for 100000 steps
ETITLE: TS BOND ANGLE DIHED IMPRP ELECT VDW BOUNDARY MISC KINETIC TOTAL TEMP POTENTIAL TOTAL3 TEMPAVG PRESSURE GPRESSURE VOLUME PRESSAVG GPRESSAVG
ENERGY: 500000 0.0000 0.0000 0.0000 0.0000 -13467.4418 2201.8829 0.0000 0.0000 894.6382 -10370.9208 153.4432 -11265.5589 -10369.2853 153.4432 -352.5068 -297.2441 28749.9535 -352.5068 -297.2441
ENERGY: 600000 0.0000 0.0000 0.0000 0.0000 -13087.4173 2120.2208 0.0000 0.0000 1019.0975 -9948.0990 174.7898 -10967.1965 -9945.6350 179.7362 -60.5157 -23.0723 29004.4345 3.1320 3.1132
TCL: Running 100000 steps at 210 kelvin.
TCL: Setting parameter langevinTemp to 210
TCL: Running for 100000 steps
ETITLE: TS BOND ANGLE DIHED IMPRP ELECT VDW BOUNDARY MISC KINETIC TOTAL TEMP POTENTIAL TOTAL3 TEMPAVG PRESSURE GPRESSURE VOLUME PRESSAVG GPRESSAVG
ENERGY: 600000 0.0000 0.0000 0.0000 0.0000 -13087.4173 2120.2208 0.0000 0.0000 1018.5737 -9948.6228 174.6999 -10967.1965 -9946.7931 174.6999 -80.3726 -22.0922 29004.4345 -80.3726 -22.0922
ENERGY: 700000 0.0000 0.0000 0.0000 0.0000 -12530.6225 2005.1387 0.0000 0.0000 1266.5481 -9258.9357 217.2311 -10525.4838 -9257.6233 209.8345 1105.2925 1207.1492 28455.9068 2.3782 2.3366
TCL: Running 100000 steps at 240 kelvin.
TCL: Setting parameter langevinTemp to 240
TCL: Running for 100000 steps
ETITLE: TS BOND ANGLE DIHED IMPRP ELECT VDW BOUNDARY MISC KINETIC TOTAL TEMP POTENTIAL TOTAL3 TEMPAVG PRESSURE GPRESSURE VOLUME PRESSAVG GPRESSAVG
ENERGY: 700000 0.0000 0.0000 0.0000 0.0000 -12530.6225 2005.1387 0.0000 0.0000 1265.9262 -9259.5576 217.1244 -10525.4838 -9257.4473 217.1244 1129.8413 1207.1942 28455.9068 1129.8413 1207.1942
ENERGY: 800000 0.0000 0.0000 0.0000 0.0000 -11725.0682 1698.6688 0.0000 0.0000 1393.6892 -8632.7101 239.0376 -10026.3994 -8628.7165 239.6666 -200.6121 -125.4441 29483.0042 4.0794 3.8388
TCL: Running 100000 steps at 270 kelvin.
TCL: Setting parameter langevinTemp to 270
TCL: Running for 100000 steps
ETITLE: TS BOND ANGLE DIHED IMPRP ELECT VDW BOUNDARY MISC KINETIC TOTAL TEMP POTENTIAL TOTAL3 TEMPAVG PRESSURE GPRESSURE VOLUME PRESSAVG GPRESSAVG
ENERGY: 800000 0.0000 0.0000 0.0000 0.0000 -11725.0682 1698.6688 0.0000 0.0000 1392.9742 -8633.4252 238.9150 -10026.3994 -8631.5253 238.9150 -214.6049 -124.3348 29483.0042 -214.6049 -124.3348
ENERGY: 900000 0.0000 0.0000 0.0000 0.0000 -11288.9034 1606.1739 0.0000 0.0000 1568.6510 -8114.0786 269.0460 -9682.7296 -8111.5463 270.1240 444.1245 505.7411 29198.8959 3.7701 3.7792
TCL: Running 1000000 steps at 300 kelvin.
TCL: Setting parameter langevinTemp to 300
TCL: Running for 1000000 steps
ETITLE: TS BOND ANGLE DIHED IMPRP ELECT VDW BOUNDARY MISC KINETIC TOTAL TEMP POTENTIAL TOTAL3 TEMPAVG PRESSURE GPRESSURE VOLUME PRESSAVG GPRESSAVG
ENERGY: 900000 0.0000 0.0000 0.0000 0.0000 -11288.9034 1606.1739 0.0000 0.0000 1567.8628 -8114.8668 268.9109 -9682.7296 -8112.1123 268.9109 415.6017 502.9990 29198.8959 415.6017 502.9990
ENERGY: 1100000 0.0000 0.0000 0.0000 0.0000 -10729.0755 1458.4561 0.0000 0.0000 1722.4422 -7548.1772 295.4234 -9270.6194 -7545.2685 299.9445 54.4217 179.8427 30190.1613 2.9000 2.8455
ENERGY: 1300000 0.0000 0.0000 0.0000 0.0000 -10763.5087 1467.5013 0.0000 0.0000 1817.7844 -7478.2230 311.7760 -9296.0074 -7477.1434 299.6068 97.3013 177.3202 30341.0537 3.5101 3.4855
ENERGY: 1500000 0.0000 0.0000 0.0000 0.0000 -10760.2666 1458.0168 0.0000 0.0000 1742.3839 -7559.8658 298.8437 -9302.2498 -7556.7115 300.9069 -145.3534 -51.8798 30800.1897 2.2684 2.0691
ENERGY: 1700000 0.0000 0.0000 0.0000 0.0000 -10663.8653 1443.3819 0.0000 0.0000 1754.8460 -7465.6373 300.9812 -9220.4834 -7462.3751 300.7804 230.1303 370.1180 30188.5794 2.7716 2.5814
ENERGY: 1900000 0.0000 0.0000 0.0000 0.0000 -10614.2801 1375.5960 0.0000 0.0000 1749.8781 -7488.8060 300.1291 -9238.6840 -7487.7129 299.5775 -361.5792 -252.9069 30284.4935 2.9427 2.8394
TCL: Exiting due to exit command.
