Info: SIMULATION PARAMETERS:
Info: TIMESTEP               2
Info: NUMBER OF STEPS        0
Info: STEPS PER CYCLE        10
Info: PERIODIC CELL BASIS 1  39.806 0 0
Info: PERIODIC CELL BASIS 2  0 34.26 0
Info: PERIODIC CELL BASIS 3  0 0 31.855
Info: PERIODIC CELL CENTER   0 0 0
Info: WRAPPING WATERS AROUND PERIODIC BOUNDARIES ON OUTPUT.
Info: WRAPPING ALL CLUSTERS AROUND PERIODIC BOUNDARIES ON OUTPUT.
Info: FIRST LDB TIMESTEP     50
Info: LAST LDB TIMESTEP     -1
Info: HOM BACKGROUND SCALING 1
Info: PME BACKGROUND SCALING 1
Info: MIN ATOMS PER PATCH    40
Info: EMPTY PATCH LOAD       40 ATOMS
Info: INITIAL TEMPERATURE    300
Info: CENTER OF MASS MOVING INITIALLY? NO
Info: DIELECTRIC             1
Info: EXCLUDE                SCALED ONE-FOUR
Info: 1-4 ELECTROSTATICS SCALED BY 0.833333
Info: MODIFIED 1-4 VDW PARAMETERS WILL BE USED
Info: DCD FILENAME           mobley_3269819_equil.dcd
Info: DCD FREQUENCY          100000
Info: DCD FIRST STEP         100000
Info: DCD FILE WILL CONTAIN UNIT CELL DATA
Info: XST FILENAME           mobley_3269819_equil.xst
Info: XST FREQUENCY          100000
Info: NO VELOCITY DCD OUTPUT
Info: NO FORCE DCD OUTPUT
Info: OUTPUT FILENAME        mobley_3269819_equil
Info: BINARY OUTPUT FILES WILL BE USED
Info: RESTART FILENAME       mobley_3269819_equil.restart
Info: RESTART FREQUENCY      100000
Info: BINARY RESTART FILES WILL BE USED
Info: CUTOFF                 9
Info: PAIRLIST DISTANCE      11
Info: PAIRLIST SHRINK RATE   0.01
Info: PAIRLIST GROW RATE     0.01
Info: PAIRLIST TRIGGER       0.3
Info: PAIRLISTS PER CYCLE    2
Info: PAIRLISTS ENABLED
Info: MARGIN                 8
Info: HYDROGEN GROUP CUTOFF  2.5
Info: PATCH DIMENSION        21.5
Info: ENERGY OUTPUT STEPS    100000
Info: ENERGY EVALUATION STEPS    100000
Info: OUTPUT ENERGY PRECISION 4
Info: CROSSTERM ENERGY INCLUDED IN DIHEDRAL
Info: TIMING OUTPUT STEPS    1000000
Info: PRESSURE OUTPUT STEPS  100000
Info: FIXED ATOMS ACTIVE
Info: LANGEVIN DYNAMICS ACTIVE
Info: LANGEVIN TEMPERATURE   30
Info: LANGEVIN USING BBK INTEGRATOR
Info: LANGEVIN DAMPING COEFFICIENT IS 1 INVERSE PS
Info: LANGEVIN DYNAMICS APPLIED TO HYDROGENS
Info: LANGEVIN PISTON PRESSURE CONTROL ACTIVE
Info:        TARGET PRESSURE IS 1.01325 BAR
Info:     OSCILLATION PERIOD IS 50 FS
Info:             DECAY TIME IS 25 FS
Info:     PISTON TEMPERATURE IS 300 K
Info:       PRESSURE CONTROL IS GROUP-BASED
Info:    INITIAL STRAIN RATE IS 0 0 0
Info:       CELL FLUCTUATION IS ISOTROPIC
Info: PARTICLE MESH EWALD (PME) ACTIVE
Info: PME TOLERANCE               1e-06
Info: PME EWALD COEFFICIENT       0.348832
Info: PME INTERPOLATION ORDER     4
Info: PME GRID DIMENSIONS         40 36 32
Info: PME MAXIMUM GRID SPACING    1
Info: FULL ELECTROSTATIC EVALUATION FREQUENCY      2
Info: USING VERLET I (r-RESPA) MTS SCHEME.
Info: C1 SPLITTING OF LONG RANGE ELECTROSTATICS
Info: PLACING ATOMS IN PATCHES BY HYDROGEN GROUPS
Info: RIGID BONDS TO HYDROGEN : ALL
Info:         ERROR TOLERANCE : 1e-08
Info:          MAX ITERATIONS : 100
Info: RIGID WATER USING SETTLE ALGORITHM
Info: RANDOM NUMBER SEED     1744726075
Info: USE HYDROGEN BONDS?    NO
Info: Using AMBER format force field!
Info: AMBER PARM FILE        mobley_3269819.prmtop
Info: COORDINATE PDB         mobley_3269819.pdb
Info: Exclusions will be read from PARM file!
Info: SCNB (VDW SCALING)     2
Info: USING ARITHMETIC MEAN TO COMBINE L-J SIGMA PARAMETERS
Info: BINARY COORDINATES     mobley_3269819_min.coor
Info: SUMMARY OF PARAMETERS:
Info: 7 BONDS
Info: 8 ANGLES
Info:   8 HARMONIC
Info:   0 COSINE-BASED
Info: 3 DIHEDRAL
Info: 0 IMPROPER
Info: 0 CROSSTERM
Info: 0 VDW
Info: 15 VDW_PAIRS
Info: 0 NBTHOLE_PAIRS
Info: STRUCTURE SUMMARY:
Info: 2956 ATOMS
Info: 2957 BONDS
Info: 36 ANGLES
Info: 64 DIHEDRALS
Info: 0 IMPROPERS
Info: 0 CROSSTERMS
Info: 3039 EXCLUSIONS
Info: 22 FIXED ATOMS
Info: 2937 RIGID BONDS
Info: 3 RIGID BONDS BETWEEN FIXED ATOMS
Info: 5868 DEGREES OF FREEDOM
Info: 997 HYDROGEN GROUPS
Info: 3 ATOMS IN LARGEST HYDROGEN GROUP
Info: 997 MIGRATION GROUPS
Info: 3 ATOMS IN LARGEST MIGRATION GROUP
Info: 19 HYDROGEN GROUPS WITH ALL ATOMS FIXED
Info: TOTAL MASS = 18014.9 amu
Info: TOTAL CHARGE = 0.000400005 e
Info: MASS DENSITY = 0.688618 g/cm^3
Info: ATOM DENSITY = 0.0680442 atoms/A^3
Info: ADDED 0 IMPLICIT EXCLUSIONS
Info: NONBONDED TABLE R-SQUARED SPACING: 0.0625
Info: NONBONDED TABLE SIZE: 705 POINTS
Info: REMOVING COM VELOCITY 0.0317438 0.0726083 0.243612
TCL: Running for 100000 steps
ETITLE: TS BOND ANGLE DIHED IMPRP ELECT VDW BOUNDARY MISC KINETIC TOTAL TEMP POTENTIAL TOTAL3 TEMPAVG PRESSURE GPRESSURE VOLUME PRESSAVG GPRESSAVG
ENERGY: 0 0.0000 0.0000 0.0000 0.0000 -13562.8460 2343.2262 0.0000 0.0000 1751.6844 -9467.9354 300.4389 -11219.6198 -9467.5869 300.4389 204.2404 235.8230 43442.3697 204.2404 235.8230
ENERGY: 100000 0.0000 0.0000 0.0000 0.0000 -14253.0958 2562.9868 0.0000 0.0000 171.0603 -11519.0487 29.3393 -11690.1090 -11518.6455 30.8950 916.5619 974.2143 29419.8648 3.8807 3.8728
TCL: Running 100000 steps at 60 kelvin.
TCL: Setting parameter langevinTemp to 60
TCL: Running for 100000 steps
ETITLE: TS BOND ANGLE DIHED IMPRP ELECT VDW BOUNDARY MISC KINETIC TOTAL TEMP POTENTIAL TOTAL3 TEMPAVG PRESSURE GPRESSURE VOLUME PRESSAVG GPRESSAVG
ENERGY: 100000 0.0000 0.0000 0.0000 0.0000 -14253.0958 2562.9868 0.0000 0.0000 170.9746 -11519.1344 29.3246 -11690.1090 -11518.8537 29.3246 919.0856 974.3154 29419.8648 919.0856 974.3154
ENERGY: 200000 0.0000 0.0000 0.0000 0.0000 -14152.4869 2523.6548 0.0000 0.0000 359.8972 -11268.9348 61.7275 -11628.8320 -11268.1752 60.0422 915.3636 981.6671 29264.5910 3.6923 3.6457
TCL: Running 100000 steps at 90 kelvin.
TCL: Setting parameter langevinTemp to 90
TCL: Running for 100000 steps
ETITLE: TS BOND ANGLE DIHED IMPRP ELECT VDW BOUNDARY MISC KINETIC TOTAL TEMP POTENTIAL TOTAL3 TEMPAVG PRESSURE GPRESSURE VOLUME PRESSAVG GPRESSAVG
ENERGY: 200000 0.0000 0.0000 0.0000 0.0000 -14152.4869 2523.6548 0.0000 0.0000 359.7192 -11269.1128 61.6970 -11628.8320 -11268.3852 61.6970 926.5573 981.6885 29264.5910 926.5573 981.6885
ENERGY: 300000 0.0000 0.0000 0.0000 0.0000 -13970.5779 2409.4584 0.0000 0.0000 531.8252 -11029.2943 91.2156 -11561.1195 -11028.1710 90.1021 118.6390 198.8398 29537.1430 3.9927 3.8726
TCL: Running 100000 steps at 120 kelvin.
TCL: Setting parameter langevinTemp to 120
TCL: Running for 100000 steps
ETITLE: TS BOND ANGLE DIHED IMPRP ELECT VDW BOUNDARY MISC KINETIC TOTAL TEMP POTENTIAL TOTAL3 TEMPAVG PRESSURE GPRESSURE VOLUME PRESSAVG GPRESSAVG
ENERGY: 300000 0.0000 0.0000 0.0000 0.0000 -13970.5779 2409.4584 0.0000 0.0000 531.5726 -11029.5469 91.1723 -11561.1195 -11028.3419 91.1723 134.8880 198.8791 29537.1430 134.8880 198.8791
ENERGY: 400000 0.0000 0.0000 0.0000 0.0000 -13837.3946 2397.8013 0.0000 0.0000 707.0322 -10732.5610 121.2661 -11439.5932 -10730.3012 119.8728 494.3172 557.2195 29480.4854 3.0764 3.1808
TCL: Running 100000 steps at 150 kelvin.
TCL: Setting parameter langevinTemp to 150
TCL: Running for 100000 steps
ETITLE: TS BOND ANGLE DIHED IMPRP ELECT VDW BOUNDARY MISC KINETIC TOTAL TEMP POTENTIAL TOTAL3 TEMPAVG PRESSURE GPRESSURE VOLUME PRESSAVG GPRESSAVG
ENERGY: 400000 0.0000 0.0000 0.0000 0.0000 -13837.3946 2397.8013 0.0000 0.0000 706.6987 -10732.8945 121.2089 -11439.5932 -10731.4315 121.2089 502.6760 557.5251 29480.4854 502.6760 557.5251
ENERGY: 500000 0.0000 0.0000 0.0000 0.0000 -13325.3065 2069.4048 0.0000 0.0000 868.3174 -10387.5843 148.9288 -11255.9017 -10384.4296 149.5760 -1354.5297 -1308.8560 29419.0266 3.0647 3.0897
TCL: Running 100000 steps at 180 kelvin.
TCL: Setting parameter langevinTemp to 180
TCL: Running for 100000 steps
ETITLE: TS BOND ANGLE DIHED IMPRP ELECT VDW BOUNDARY MISC KINETIC TOTAL TEMP POTENTIAL TOTAL3 TEMPAVG PRESSURE GPRESSURE VOLUME PRESSAVG GPRESSAVG
ENERGY: 500000 0.0000 0.0000 0.0000 0.0000 -13325.3065 2069.4048 0.0000 0.0000 867.8969 -10388.0048 148.8567 -11255.9017 -10386.0239 148.8567 -1365.6680 -1308.4598 29419.0266 -1365.6680 -1308.4598
ENERGY: 600000 0.0000 0.0000 0.0000 0.0000 -13091.6217 2058.4869 0.0000 0.0000 1051.3676 -9981.7672 180.3246 -11033.1348 -9978.0090 179.3218 -550.0025 -475.8824 29345.0097 3.5748 3.4996
TCL: Running 100000 steps at 210 kelvin.
TCL: Setting parameter langevinTemp to 210
TCL: Running for 100000 steps
ETITLE: TS BOND ANGLE DIHED IMPRP ELECT VDW BOUNDARY MISC KINETIC TOTAL TEMP POTENTIAL TOTAL3 TEMPAVG PRESSURE GPRESSURE VOLUME PRESSAVG GPRESSAVG
ENERGY: 600000 0.0000 0.0000 0.0000 0.0000 -13091.6217 2058.4869 0.0000 0.0000 1050.8447 -9982.2901 180.2349 -11033.1348 -9979.9554 180.2349 -529.6436 -476.3289 29345.0097 -529.6436 -476.3289
ENERGY: 700000 0.0000 0.0000 0.0000 0.0000 -12296.4934 1792.5410 0.0000 0.0000 1215.3294 -9288.6231 208.4463 -10503.9525 -9285.5315 210.3551 -902.1821 -834.1944 29446.7774 4.8135 4.8279
TCL: Running 100000 steps at 240 kelvin.
TCL: Setting parameter langevinTemp to 240
TCL: Running for 100000 steps
ETITLE: TS BOND ANGLE DIHED IMPRP ELECT VDW BOUNDARY MISC KINETIC TOTAL TEMP POTENTIAL TOTAL3 TEMPAVG PRESSURE GPRESSURE VOLUME PRESSAVG GPRESSAVG
ENERGY: 700000 0.0000 0.0000 0.0000 0.0000 -12296.4934 1792.5410 0.0000 0.0000 1214.7502 -9289.2023 208.3470 -10503.9525 -9287.1004 208.3470 -912.0463 -833.0179 29446.7774 -912.0463 -833.0179
ENERGY: 800000 0.0000 0.0000 0.0000 0.0000 -11896.6786 1786.5586 0.0000 0.0000 1381.8172 -8728.3028 237.0014 -10110.1200 -8725.3129 240.0646 714.2716 822.4617 29016.3308 3.4022 3.5258
TCL: Running 100000 steps at 270 kelvin.
TCL: Setting parameter langevinTemp to 270
TCL: Running for 100000 steps
ETITLE: TS BOND ANGLE DIHED IMPRP ELECT VDW BOUNDARY MISC KINETIC TOTAL TEMP POTENTIAL TOTAL3 TEMPAVG PRESSURE GPRESSURE VOLUME PRESSAVG GPRESSAVG
ENERGY: 800000 0.0000 0.0000 0.0000 0.0000 -11896.6786 1786.5586 0.0000 0.0000 1381.1306 -8728.9893 236.8836 -10110.1200 -8726.6873 236.8836 742.4349 823.6356 29016.3308 742.4349 823.6356
ENERGY: 900000 0.0000 0.0000 0.0000 0.0000 -11330.8017 1599.8349 0.0000 0.0000 1603.6557 -8127.3111 275.0498 -9730.9668 -8123.2245 269.7384 466.2499 509.8872 29562.9217 2.6604 2.5772
TCL: Running 1000000 steps at 300 kelvin.
TCL: Setting parameter langevinTemp to 300
TCL: Running for 1000000 steps
ETITLE: TS BOND ANGLE DIHED IMPRP ELECT VDW BOUNDARY MISC KINETIC TOTAL TEMP POTENTIAL TOTAL3 TEMPAVG PRESSURE GPRESSURE VOLUME PRESSAVG GPRESSAVG
ENERGY: 900000 0.0000 0.0000 0.0000 0.0000 -11330.8017 1599.8349 0.0000 0.0000 1602.8709 -8128.0959 274.9152 -9730.9668 -8125.9998 274.9152 429.6911 511.2809 29562.9217 429.6911 511.2809
ENERGY: 1100000 0.0000 0.0000 0.0000 0.0000 -10642.2625 1432.7739 0.0000 0.0000 1786.4819 -7423.0067 306.4072 -9209.4886 -7419.9667 300.1821 332.5788 448.9358 30469.5450 3.8361 3.7116
ENERGY: 1300000 0.0000 0.0000 0.0000 0.0000 -10626.4216 1375.0108 0.0000 0.0000 1706.6260 -7544.7849 292.7107 -9251.4109 -7540.8540 299.8202 -414.8243 -327.8065 30629.4045 3.1419 3.2403
ENERGY: 1500000 0.0000 0.0000 0.0000 0.0000 -10612.7848 1399.5007 0.0000 0.0000 1723.4870 -7489.7971 295.6026 -9213.2842 -7485.6047 300.6408 -74.9785 23.2074 30548.6259 2.1126 2.1377
ENERGY: 1700000 0.0000 0.0000 0.0000 0.0000 -10526.9304 1367.2710 0.0000 0.0000 1770.7649 -7388.8945 303.7115 -9159.6594 -7381.7316 299.9167 -242.0471 -184.3632 30980.4574 2.7443 2.7327
ENERGY: 1900000 0.0000 0.0000 0.0000 0.0000 -10618.7288 1391.8004 0.0000 0.0000 1795.6861 -7431.2424 307.9858 -9226.9285 -7426.8092 299.6492 36.6329 140.6328 30312.6103 3.5739 3.7627
TCL: Exiting due to exit command.
