Info: SIMULATION PARAMETERS:
Info: TIMESTEP               2
Info: NUMBER OF STEPS        0
Info: STEPS PER CYCLE        10
Info: PERIODIC CELL BASIS 1  36.281 0 0
Info: PERIODIC CELL BASIS 2  0 35.411 0
Info: PERIODIC CELL BASIS 3  0 0 34.954
Info: PERIODIC CELL CENTER   0 0 0
Info: WRAPPING WATERS AROUND PERIODIC BOUNDARIES ON OUTPUT.
Info: WRAPPING ALL CLUSTERS AROUND PERIODIC BOUNDARIES ON OUTPUT.
Info: FIRST LDB TIMESTEP     50
Info: LAST LDB TIMESTEP     -1
Info: HOM BACKGROUND SCALING 1
Info: PME BACKGROUND SCALING 1
Info: MIN ATOMS PER PATCH    40
Info: EMPTY PATCH LOAD       40 ATOMS
Info: INITIAL TEMPERATURE    300
Info: CENTER OF MASS MOVING INITIALLY? NO
Info: DIELECTRIC             1
Info: EXCLUDE                SCALED ONE-FOUR
Info: 1-4 ELECTROSTATICS SCALED BY 0.833333
Info: MODIFIED 1-4 VDW PARAMETERS WILL BE USED
Info: DCD FILENAME           mobley_5347550_equil.dcd
Info: DCD FREQUENCY          100000
Info: DCD FIRST STEP         100000
Info: DCD FILE WILL CONTAIN UNIT CELL DATA
Info: XST FILENAME           mobley_5347550_equil.xst
Info: XST FREQUENCY          100000
Info: NO VELOCITY DCD OUTPUT
Info: NO FORCE DCD OUTPUT
Info: OUTPUT FILENAME        mobley_5347550_equil
Info: BINARY OUTPUT FILES WILL BE USED
Info: RESTART FILENAME       mobley_5347550_equil.restart
Info: RESTART FREQUENCY      100000
Info: BINARY RESTART FILES WILL BE USED
Info: CUTOFF                 9
Info: PAIRLIST DISTANCE      11
Info: PAIRLIST SHRINK RATE   0.01
Info: PAIRLIST GROW RATE     0.01
Info: PAIRLIST TRIGGER       0.3
Info: PAIRLISTS PER CYCLE    2
Info: PAIRLISTS ENABLED
Info: MARGIN                 8
Info: HYDROGEN GROUP CUTOFF  2.5
Info: PATCH DIMENSION        21.5
Info: ENERGY OUTPUT STEPS    100000
Info: ENERGY EVALUATION STEPS    100000
Info: OUTPUT ENERGY PRECISION 4
Info: CROSSTERM ENERGY INCLUDED IN DIHEDRAL
Info: TIMING OUTPUT STEPS    1000000
Info: PRESSURE OUTPUT STEPS  100000
Info: FIXED ATOMS ACTIVE
Info: LANGEVIN DYNAMICS ACTIVE
Info: LANGEVIN TEMPERATURE   30
Info: LANGEVIN USING BBK INTEGRATOR
Info: LANGEVIN DAMPING COEFFICIENT IS 1 INVERSE PS
Info: LANGEVIN DYNAMICS APPLIED TO HYDROGENS
Info: LANGEVIN PISTON PRESSURE CONTROL ACTIVE
Info:        TARGET PRESSURE IS 1.01325 BAR
Info:     OSCILLATION PERIOD IS 50 FS
Info:             DECAY TIME IS 25 FS
Info:     PISTON TEMPERATURE IS 300 K
Info:       PRESSURE CONTROL IS GROUP-BASED
Info:    INITIAL STRAIN RATE IS 0 0 0
Info:       CELL FLUCTUATION IS ISOTROPIC
Info: PARTICLE MESH EWALD (PME) ACTIVE
Info: PME TOLERANCE               1e-06
Info: PME EWALD COEFFICIENT       0.348832
Info: PME INTERPOLATION ORDER     4
Info: PME GRID DIMENSIONS         40 36 36
Info: PME MAXIMUM GRID SPACING    1
Info: FULL ELECTROSTATIC EVALUATION FREQUENCY      2
Info: USING VERLET I (r-RESPA) MTS SCHEME.
Info: C1 SPLITTING OF LONG RANGE ELECTROSTATICS
Info: PLACING ATOMS IN PATCHES BY HYDROGEN GROUPS
Info: RIGID BONDS TO HYDROGEN : ALL
Info:         ERROR TOLERANCE : 1e-08
Info:          MAX ITERATIONS : 100
Info: RIGID WATER USING SETTLE ALGORITHM
Info: RANDOM NUMBER SEED     1744764737
Info: USE HYDROGEN BONDS?    NO
Info: Using AMBER format force field!
Info: AMBER PARM FILE        mobley_5347550.prmtop
Info: COORDINATE PDB         mobley_5347550.pdb
Info: Exclusions will be read from PARM file!
Info: SCNB (VDW SCALING)     2
Info: USING ARITHMETIC MEAN TO COMBINE L-J SIGMA PARAMETERS
Info: BINARY COORDINATES     mobley_5347550_min.coor
Info: SUMMARY OF PARAMETERS:
Info: 8 BONDS
Info: 11 ANGLES
Info:   11 HARMONIC
Info:   0 COSINE-BASED
Info: 4 DIHEDRAL
Info: 0 IMPROPER
Info: 0 CROSSTERM
Info: 0 VDW
Info: 36 VDW_PAIRS
Info: 0 NBTHOLE_PAIRS
Info: STRUCTURE SUMMARY:
Info: 2961 ATOMS
Info: 2960 BONDS
Info: 19 ANGLES
Info: 16 DIHEDRALS
Info: 0 IMPROPERS
Info: 0 CROSSTERMS
Info: 2994 EXCLUSIONS
Info: 12 FIXED ATOMS
Info: 2953 RIGID BONDS
Info: 4 RIGID BONDS BETWEEN FIXED ATOMS
Info: 5898 DEGREES OF FREEDOM
Info: 991 HYDROGEN GROUPS
Info: 4 ATOMS IN LARGEST HYDROGEN GROUP
Info: 991 MIGRATION GROUPS
Info: 4 ATOMS IN LARGEST MIGRATION GROUP
Info: 8 HYDROGEN GROUPS WITH ALL ATOMS FIXED
Info: TOTAL MASS = 17874.7 amu
Info: TOTAL CHARGE = 0.00010002 e
Info: MASS DENSITY = 0.660973 g/cm^3
Info: ATOM DENSITY = 0.0659362 atoms/A^3
Info: ADDED 0 IMPLICIT EXCLUSIONS
Info: NONBONDED TABLE R-SQUARED SPACING: 0.0625
Info: NONBONDED TABLE SIZE: 705 POINTS
Info: REMOVING COM VELOCITY -0.129146 0.334027 -0.159347
TCL: Running for 100000 steps
ETITLE: TS BOND ANGLE DIHED IMPRP ELECT VDW BOUNDARY MISC KINETIC TOTAL TEMP POTENTIAL TOTAL3 TEMPAVG PRESSURE GPRESSURE VOLUME PRESSAVG GPRESSAVG
ENERGY: 0 0.0000 0.0000 0.0000 0.0000 -13748.5598 2427.6130 0.0000 0.0000 1734.0547 -9586.8921 295.9023 -11320.9467 -9586.5824 295.9023 587.1890 618.4483 44907.0288 587.1890 618.4483
ENERGY: 100000 0.0000 0.0000 0.0000 0.0000 -14237.1993 2404.1070 0.0000 0.0000 184.5655 -11648.5268 31.4946 -11833.0924 -11647.9812 30.8656 -680.5590 -603.4712 29284.5346 3.8588 3.7935
TCL: Running 100000 steps at 60 kelvin.
TCL: Setting parameter langevinTemp to 60
TCL: Running for 100000 steps
ETITLE: TS BOND ANGLE DIHED IMPRP ELECT VDW BOUNDARY MISC KINETIC TOTAL TEMP POTENTIAL TOTAL3 TEMPAVG PRESSURE GPRESSURE VOLUME PRESSAVG GPRESSAVG
ENERGY: 100000 0.0000 0.0000 0.0000 0.0000 -14237.1993 2404.1070 0.0000 0.0000 184.4791 -11648.6132 31.4799 -11833.0924 -11648.1161 31.4799 -663.4646 -603.2307 29284.5346 -663.4646 -603.2307
ENERGY: 200000 0.0000 0.0000 0.0000 0.0000 -14262.3435 2500.4448 0.0000 0.0000 346.3169 -11415.5819 59.0962 -11761.8988 -11415.0544 59.8855 429.2418 494.8522 28972.7475 3.7739 3.6505
TCL: Running 100000 steps at 90 kelvin.
TCL: Setting parameter langevinTemp to 90
TCL: Running for 100000 steps
ETITLE: TS BOND ANGLE DIHED IMPRP ELECT VDW BOUNDARY MISC KINETIC TOTAL TEMP POTENTIAL TOTAL3 TEMPAVG PRESSURE GPRESSURE VOLUME PRESSAVG GPRESSAVG
ENERGY: 200000 0.0000 0.0000 0.0000 0.0000 -14262.3435 2500.4448 0.0000 0.0000 346.1424 -11415.7564 59.0664 -11761.8988 -11415.0729 59.0664 432.7525 494.7573 28972.7475 432.7525 494.7573
ENERGY: 300000 0.0000 0.0000 0.0000 0.0000 -14177.6822 2520.4516 0.0000 0.0000 521.5879 -11135.6427 89.0047 -11657.2306 -11134.5857 89.9394 1173.8600 1183.6476 28747.4325 3.9764 4.0882
TCL: Running 100000 steps at 120 kelvin.
TCL: Setting parameter langevinTemp to 120
TCL: Running for 100000 steps
ETITLE: TS BOND ANGLE DIHED IMPRP ELECT VDW BOUNDARY MISC KINETIC TOTAL TEMP POTENTIAL TOTAL3 TEMPAVG PRESSURE GPRESSURE VOLUME PRESSAVG GPRESSAVG
ENERGY: 300000 0.0000 0.0000 0.0000 0.0000 -14177.6822 2520.4516 0.0000 0.0000 521.3249 -11135.9057 88.9599 -11657.2306 -11135.0906 88.9599 1150.9073 1183.3512 28747.4325 1150.9073 1183.3512
ENERGY: 400000 0.0000 0.0000 0.0000 0.0000 -13792.0076 2257.3522 0.0000 0.0000 712.7480 -10821.9074 121.6247 -11534.6554 -10819.5525 119.9573 -623.1973 -582.9523 29208.6249 3.8108 3.8492
TCL: Running 100000 steps at 150 kelvin.
TCL: Setting parameter langevinTemp to 150
TCL: Running for 100000 steps
ETITLE: TS BOND ANGLE DIHED IMPRP ELECT VDW BOUNDARY MISC KINETIC TOTAL TEMP POTENTIAL TOTAL3 TEMPAVG PRESSURE GPRESSURE VOLUME PRESSAVG GPRESSAVG
ENERGY: 400000 0.0000 0.0000 0.0000 0.0000 -13792.0076 2257.3522 0.0000 0.0000 712.4133 -10822.2422 121.5675 -11534.6554 -10820.6984 121.5675 -637.2224 -582.3673 29208.6249 -637.2224 -582.3673
ENERGY: 500000 0.0000 0.0000 0.0000 0.0000 -13586.2169 2245.3121 0.0000 0.0000 886.4030 -10454.5019 151.2575 -11340.9049 -10451.8462 149.9148 -44.9235 51.7884 29121.3254 4.3000 4.3327
TCL: Running 100000 steps at 180 kelvin.
TCL: Setting parameter langevinTemp to 180
TCL: Running for 100000 steps
ETITLE: TS BOND ANGLE DIHED IMPRP ELECT VDW BOUNDARY MISC KINETIC TOTAL TEMP POTENTIAL TOTAL3 TEMPAVG PRESSURE GPRESSURE VOLUME PRESSAVG GPRESSAVG
ENERGY: 500000 0.0000 0.0000 0.0000 0.0000 -13586.2169 2245.3121 0.0000 0.0000 885.9710 -10454.9339 151.1837 -11340.9049 -10453.0705 151.1837 -12.4335 51.9654 29121.3254 -12.4335 51.9654
ENERGY: 600000 0.0000 0.0000 0.0000 0.0000 -13233.6227 2120.2365 0.0000 0.0000 1071.1538 -10042.2323 182.7837 -11113.3862 -10039.6399 179.9920 -278.1504 -191.5016 29175.5961 3.5299 3.6027
TCL: Running 100000 steps at 210 kelvin.
TCL: Setting parameter langevinTemp to 210
TCL: Running for 100000 steps
ETITLE: TS BOND ANGLE DIHED IMPRP ELECT VDW BOUNDARY MISC KINETIC TOTAL TEMP POTENTIAL TOTAL3 TEMPAVG PRESSURE GPRESSURE VOLUME PRESSAVG GPRESSAVG
ENERGY: 600000 0.0000 0.0000 0.0000 0.0000 -13233.6227 2120.2365 0.0000 0.0000 1070.6273 -10042.7589 182.6938 -11113.3862 -10040.8732 182.6938 -246.7221 -190.7752 29175.5961 -246.7221 -190.7752
ENERGY: 700000 0.0000 0.0000 0.0000 0.0000 -12508.2054 1879.7728 0.0000 0.0000 1214.2922 -9414.1404 207.2091 -10628.4326 -9411.2224 210.0016 -237.5127 -147.2239 28886.4532 2.4511 2.6385
TCL: Running 100000 steps at 240 kelvin.
TCL: Setting parameter langevinTemp to 240
TCL: Running for 100000 steps
ETITLE: TS BOND ANGLE DIHED IMPRP ELECT VDW BOUNDARY MISC KINETIC TOTAL TEMP POTENTIAL TOTAL3 TEMPAVG PRESSURE GPRESSURE VOLUME PRESSAVG GPRESSAVG
ENERGY: 700000 0.0000 0.0000 0.0000 0.0000 -12508.2054 1879.7728 0.0000 0.0000 1213.6872 -9414.7454 207.1059 -10628.4326 -9412.7982 207.1059 -228.0808 -147.6341 28886.4532 -228.0808 -147.6341
ENERGY: 800000 0.0000 0.0000 0.0000 0.0000 -11824.3846 1697.2401 0.0000 0.0000 1425.0432 -8702.1013 243.1720 -10127.1445 -8698.1693 240.0639 18.7454 90.7738 29046.0545 4.7526 4.5407
TCL: Running 100000 steps at 270 kelvin.
TCL: Setting parameter langevinTemp to 270
TCL: Running for 100000 steps
ETITLE: TS BOND ANGLE DIHED IMPRP ELECT VDW BOUNDARY MISC KINETIC TOTAL TEMP POTENTIAL TOTAL3 TEMPAVG PRESSURE GPRESSURE VOLUME PRESSAVG GPRESSAVG
ENERGY: 800000 0.0000 0.0000 0.0000 0.0000 -11824.3846 1697.2401 0.0000 0.0000 1424.3563 -8702.7882 243.0548 -10127.1445 -8700.2966 243.0548 9.6448 92.4106 29046.0545 9.6448 92.4106
ENERGY: 900000 0.0000 0.0000 0.0000 0.0000 -11457.9281 1662.8057 0.0000 0.0000 1552.0737 -8243.0487 264.8488 -9795.1224 -8239.2289 269.9176 604.4553 744.5640 29448.7629 2.1519 2.1797
TCL: Running 1000000 steps at 300 kelvin.
TCL: Setting parameter langevinTemp to 300
TCL: Running for 1000000 steps
ETITLE: TS BOND ANGLE DIHED IMPRP ELECT VDW BOUNDARY MISC KINETIC TOTAL TEMP POTENTIAL TOTAL3 TEMPAVG PRESSURE GPRESSURE VOLUME PRESSAVG GPRESSAVG
ENERGY: 900000 0.0000 0.0000 0.0000 0.0000 -11457.9281 1662.8057 0.0000 0.0000 1551.2678 -8243.8546 264.7112 -9795.1224 -8241.9253 264.7112 659.6495 746.8820 29448.7629 659.6495 746.8820
ENERGY: 1100000 0.0000 0.0000 0.0000 0.0000 -10644.9596 1372.1986 0.0000 0.0000 1760.7104 -7512.0506 300.4509 -9272.7610 -7509.6891 300.5195 -228.3976 -121.9694 30326.5092 4.0366 3.8955
ENERGY: 1300000 0.0000 0.0000 0.0000 0.0000 -10608.9652 1293.6487 0.0000 0.0000 1779.9740 -7535.3424 303.7381 -9315.3165 -7530.7857 300.6198 -1211.8215 -1003.7228 30606.9489 1.8604 1.7886
ENERGY: 1500000 0.0000 0.0000 0.0000 0.0000 -10980.4888 1499.9225 0.0000 0.0000 1757.6993 -7722.8670 299.9371 -9480.5663 -7716.9719 299.7990 231.6006 270.9135 30223.0033 4.0456 3.9633
ENERGY: 1700000 0.0000 0.0000 0.0000 0.0000 -10786.4160 1487.4596 0.0000 0.0000 1698.2761 -7600.6803 289.7970 -9298.9564 -7595.6934 299.4828 461.4370 525.1829 30336.8850 4.3869 4.4611
ENERGY: 1900000 0.0000 0.0000 0.0000 0.0000 -10640.1339 1336.6712 0.0000 0.0000 1783.3460 -7520.1167 304.3135 -9303.4627 -7515.4019 299.8958 -626.8299 -564.8845 30600.3670 3.2067 3.2151
TCL: Exiting due to exit command.
