Info: SIMULATION PARAMETERS:
Info: TIMESTEP               2
Info: NUMBER OF STEPS        0
Info: STEPS PER CYCLE        10
Info: PERIODIC CELL BASIS 1  37.133 0 0
Info: PERIODIC CELL BASIS 2  0 34.26 0
Info: PERIODIC CELL BASIS 3  0 0 34.68
Info: PERIODIC CELL CENTER   0 0 0
Info: WRAPPING WATERS AROUND PERIODIC BOUNDARIES ON OUTPUT.
Info: WRAPPING ALL CLUSTERS AROUND PERIODIC BOUNDARIES ON OUTPUT.
Info: FIRST LDB TIMESTEP     50
Info: LAST LDB TIMESTEP     -1
Info: HOM BACKGROUND SCALING 1
Info: PME BACKGROUND SCALING 1
Info: MIN ATOMS PER PATCH    40
Info: EMPTY PATCH LOAD       40 ATOMS
Info: INITIAL TEMPERATURE    300
Info: CENTER OF MASS MOVING INITIALLY? NO
Info: DIELECTRIC             1
Info: EXCLUDE                SCALED ONE-FOUR
Info: 1-4 ELECTROSTATICS SCALED BY 0.833333
Info: MODIFIED 1-4 VDW PARAMETERS WILL BE USED
Info: DCD FILENAME           mobley_5445548_equil.dcd
Info: DCD FREQUENCY          100000
Info: DCD FIRST STEP         100000
Info: DCD FILE WILL CONTAIN UNIT CELL DATA
Info: XST FILENAME           mobley_5445548_equil.xst
Info: XST FREQUENCY          100000
Info: NO VELOCITY DCD OUTPUT
Info: NO FORCE DCD OUTPUT
Info: OUTPUT FILENAME        mobley_5445548_equil
Info: BINARY OUTPUT FILES WILL BE USED
Info: RESTART FILENAME       mobley_5445548_equil.restart
Info: RESTART FREQUENCY      100000
Info: BINARY RESTART FILES WILL BE USED
Info: CUTOFF                 9
Info: PAIRLIST DISTANCE      11
Info: PAIRLIST SHRINK RATE   0.01
Info: PAIRLIST GROW RATE     0.01
Info: PAIRLIST TRIGGER       0.3
Info: PAIRLISTS PER CYCLE    2
Info: PAIRLISTS ENABLED
Info: MARGIN                 8
Info: HYDROGEN GROUP CUTOFF  2.5
Info: PATCH DIMENSION        21.5
Info: ENERGY OUTPUT STEPS    100000
Info: ENERGY EVALUATION STEPS    100000
Info: OUTPUT ENERGY PRECISION 4
Info: CROSSTERM ENERGY INCLUDED IN DIHEDRAL
Info: TIMING OUTPUT STEPS    1000000
Info: PRESSURE OUTPUT STEPS  100000
Info: FIXED ATOMS ACTIVE
Info: LANGEVIN DYNAMICS ACTIVE
Info: LANGEVIN TEMPERATURE   30
Info: LANGEVIN USING BBK INTEGRATOR
Info: LANGEVIN DAMPING COEFFICIENT IS 1 INVERSE PS
Info: LANGEVIN DYNAMICS APPLIED TO HYDROGENS
Info: LANGEVIN PISTON PRESSURE CONTROL ACTIVE
Info:        TARGET PRESSURE IS 1.01325 BAR
Info:     OSCILLATION PERIOD IS 50 FS
Info:             DECAY TIME IS 25 FS
Info:     PISTON TEMPERATURE IS 300 K
Info:       PRESSURE CONTROL IS GROUP-BASED
Info:    INITIAL STRAIN RATE IS 0 0 0
Info:       CELL FLUCTUATION IS ISOTROPIC
Info: PARTICLE MESH EWALD (PME) ACTIVE
Info: PME TOLERANCE               1e-06
Info: PME EWALD COEFFICIENT       0.348832
Info: PME INTERPOLATION ORDER     4
Info: PME GRID DIMENSIONS         40 36 36
Info: PME MAXIMUM GRID SPACING    1
Info: FULL ELECTROSTATIC EVALUATION FREQUENCY      2
Info: USING VERLET I (r-RESPA) MTS SCHEME.
Info: C1 SPLITTING OF LONG RANGE ELECTROSTATICS
Info: PLACING ATOMS IN PATCHES BY HYDROGEN GROUPS
Info: RIGID BONDS TO HYDROGEN : ALL
Info:         ERROR TOLERANCE : 1e-08
Info:          MAX ITERATIONS : 100
Info: RIGID WATER USING SETTLE ALGORITHM
Info: RANDOM NUMBER SEED     1744725946
Info: USE HYDROGEN BONDS?    NO
Info: Using AMBER format force field!
Info: AMBER PARM FILE        mobley_5445548.prmtop
Info: COORDINATE PDB         mobley_5445548.pdb
Info: Exclusions will be read from PARM file!
Info: SCNB (VDW SCALING)     2
Info: USING ARITHMETIC MEAN TO COMBINE L-J SIGMA PARAMETERS
Info: BINARY COORDINATES     mobley_5445548_min.coor
Info: SUMMARY OF PARAMETERS:
Info: 7 BONDS
Info: 8 ANGLES
Info: 6 DIHEDRAL
Info: 0 IMPROPER
Info: 0 CROSSTERM
Info: 0 VDW
Info: 21 VDW_PAIRS
Info: 0 NBTHOLE_PAIRS
Info: STRUCTURE SUMMARY:
Info: 2934 ATOMS
Info: 2934 BONDS
Info: 36 ANGLES
Info: 54 DIHEDRALS
Info: 0 IMPROPERS
Info: 0 CROSSTERMS
Info: 3015 EXCLUSIONS
Info: 21 FIXED ATOMS
Info: 2925 RIGID BONDS
Info: 12 RIGID BONDS BETWEEN FIXED ATOMS
Info: 5826 DEGREES OF FREEDOM
Info: 980 HYDROGEN GROUPS
Info: 4 ATOMS IN LARGEST HYDROGEN GROUP
Info: 980 MIGRATION GROUPS
Info: 4 ATOMS IN LARGEST MIGRATION GROUP
Info: 9 HYDROGEN GROUPS WITH ALL ATOMS FIXED
Info: TOTAL MASS = 17613.7 amu
Info: TOTAL CHARGE = -0.000100028 e
Info: MASS DENSITY = 0.662955 g/cm^3
Info: ATOM DENSITY = 0.0665018 atoms/A^3
Info: ADDED 0 IMPLICIT EXCLUSIONS
Info: NONBONDED TABLE R-SQUARED SPACING: 0.0625
Info: NONBONDED TABLE SIZE: 705 POINTS
Info: REMOVING COM VELOCITY 0.053081 0.126447 0.0804666
TCL: Running for 100000 steps
ETITLE: TS BOND ANGLE DIHED IMPRP ELECT VDW BOUNDARY MISC KINETIC TOTAL TEMP POTENTIAL TOTAL3 TEMPAVG PRESSURE GPRESSURE VOLUME PRESSAVG GPRESSAVG
ENERGY: 0 0.0000 0.0000 0.0000 0.0000 -13417.4093 2329.1560 0.0000 0.0000 1789.9190 -9298.3343 309.2098 -11088.2533 -9297.9772 309.2098 274.7940 321.0698 44119.0838 274.7940 321.0698
ENERGY: 100000 0.0000 0.0000 0.0000 0.0000 -14097.1093 2460.1045 0.0000 0.0000 170.0422 -11466.9626 29.3749 -11637.0048 -11466.5975 30.9388 -171.8781 -96.6865 29535.3060 3.4430 3.4659
TCL: Running 100000 steps at 60 kelvin.
TCL: Setting parameter langevinTemp to 60
TCL: Running for 100000 steps
ETITLE: TS BOND ANGLE DIHED IMPRP ELECT VDW BOUNDARY MISC KINETIC TOTAL TEMP POTENTIAL TOTAL3 TEMPAVG PRESSURE GPRESSURE VOLUME PRESSAVG GPRESSAVG
ENERGY: 100000 0.0000 0.0000 0.0000 0.0000 -14097.1093 2460.1045 0.0000 0.0000 169.9548 -11467.0500 29.3598 -11637.0048 -11466.7210 29.3598 -152.6930 -96.5617 29535.3060 -152.6930 -96.5617
ENERGY: 200000 0.0000 0.0000 0.0000 0.0000 -14069.5074 2495.1210 0.0000 0.0000 356.5333 -11217.8531 61.5914 -11574.3864 -11216.9758 59.7703 376.9162 416.2173 29428.7666 4.9100 4.7892
TCL: Running 100000 steps at 90 kelvin.
TCL: Setting parameter langevinTemp to 90
TCL: Running for 100000 steps
ETITLE: TS BOND ANGLE DIHED IMPRP ELECT VDW BOUNDARY MISC KINETIC TOTAL TEMP POTENTIAL TOTAL3 TEMPAVG PRESSURE GPRESSURE VOLUME PRESSAVG GPRESSAVG
ENERGY: 200000 0.0000 0.0000 0.0000 0.0000 -14069.5074 2495.1210 0.0000 0.0000 356.3601 -11218.0263 61.5615 -11574.3864 -11217.2464 61.5615 362.4498 416.1186 29428.7666 362.4498 416.1186
ENERGY: 300000 0.0000 0.0000 0.0000 0.0000 -13760.4576 2287.6702 0.0000 0.0000 519.2688 -10953.5185 89.7041 -11472.7874 -10952.4303 90.0421 -828.9302 -756.2502 29470.2963 5.9076 5.7625
TCL: Running 100000 steps at 120 kelvin.
TCL: Setting parameter langevinTemp to 120
TCL: Running for 100000 steps
ETITLE: TS BOND ANGLE DIHED IMPRP ELECT VDW BOUNDARY MISC KINETIC TOTAL TEMP POTENTIAL TOTAL3 TEMPAVG PRESSURE GPRESSURE VOLUME PRESSAVG GPRESSAVG
ENERGY: 300000 0.0000 0.0000 0.0000 0.0000 -13760.4576 2287.6702 0.0000 0.0000 519.0236 -10953.7638 89.6617 -11472.7874 -10952.5560 89.6617 -804.3191 -756.5279 29470.2963 -804.3191 -756.5279
ENERGY: 400000 0.0000 0.0000 0.0000 0.0000 -13560.9243 2220.1651 0.0000 0.0000 694.4319 -10646.3273 119.9636 -11340.7592 -10644.2097 120.0501 -796.5085 -723.4398 29101.4306 3.9455 3.9162
TCL: Running 100000 steps at 150 kelvin.
TCL: Setting parameter langevinTemp to 150
TCL: Running for 100000 steps
ETITLE: TS BOND ANGLE DIHED IMPRP ELECT VDW BOUNDARY MISC KINETIC TOTAL TEMP POTENTIAL TOTAL3 TEMPAVG PRESSURE GPRESSURE VOLUME PRESSAVG GPRESSAVG
ENERGY: 400000 0.0000 0.0000 0.0000 0.0000 -13560.9243 2220.1651 0.0000 0.0000 694.0826 -10646.6766 119.9033 -11340.7592 -10645.2616 119.9033 -768.9786 -722.6976 29101.4306 -768.9786 -722.6976
ENERGY: 500000 0.0000 0.0000 0.0000 0.0000 -13448.7255 2253.7529 0.0000 0.0000 869.7356 -10325.2370 150.2475 -11194.9725 -10322.7339 149.6607 155.1547 218.8649 28788.6792 4.1018 4.2869
TCL: Running 100000 steps at 180 kelvin.
TCL: Setting parameter langevinTemp to 180
TCL: Running for 100000 steps
ETITLE: TS BOND ANGLE DIHED IMPRP ELECT VDW BOUNDARY MISC KINETIC TOTAL TEMP POTENTIAL TOTAL3 TEMPAVG PRESSURE GPRESSURE VOLUME PRESSAVG GPRESSAVG
ENERGY: 500000 0.0000 0.0000 0.0000 0.0000 -13448.7255 2253.7529 0.0000 0.0000 869.2855 -10325.6871 150.1697 -11194.9725 -10324.0275 150.1697 164.1708 219.8834 28788.6792 164.1708 219.8834
ENERGY: 600000 0.0000 0.0000 0.0000 0.0000 -12761.2092 1905.4717 0.0000 0.0000 1030.5239 -9825.2136 178.0238 -10855.7375 -9823.9869 179.6508 -1427.4202 -1354.0164 28821.4079 3.3680 3.5525
TCL: Running 100000 steps at 210 kelvin.
TCL: Setting parameter langevinTemp to 210
TCL: Running for 100000 steps
ETITLE: TS BOND ANGLE DIHED IMPRP ELECT VDW BOUNDARY MISC KINETIC TOTAL TEMP POTENTIAL TOTAL3 TEMPAVG PRESSURE GPRESSURE VOLUME PRESSAVG GPRESSAVG
ENERGY: 600000 0.0000 0.0000 0.0000 0.0000 -12761.2092 1905.4717 0.0000 0.0000 1029.9807 -9825.7568 177.9299 -10855.7375 -9823.7787 177.9299 -1414.2096 -1355.2549 28821.4079 -1414.2096 -1355.2549
ENERGY: 700000 0.0000 0.0000 0.0000 0.0000 -12456.8510 1946.3895 0.0000 0.0000 1164.0627 -9346.3988 201.0927 -10510.4615 -9343.5619 209.6633 428.4724 476.8128 28466.3122 4.4434 4.3246
TCL: Running 100000 steps at 240 kelvin.
TCL: Setting parameter langevinTemp to 240
TCL: Running for 100000 steps
ETITLE: TS BOND ANGLE DIHED IMPRP ELECT VDW BOUNDARY MISC KINETIC TOTAL TEMP POTENTIAL TOTAL3 TEMPAVG PRESSURE GPRESSURE VOLUME PRESSAVG GPRESSAVG
ENERGY: 700000 0.0000 0.0000 0.0000 0.0000 -12456.8510 1946.3895 0.0000 0.0000 1163.4383 -9347.0232 200.9848 -10510.4615 -9345.6407 200.9848 407.9891 478.3197 28466.3122 407.9891 478.3197
ENERGY: 800000 0.0000 0.0000 0.0000 0.0000 -11560.2108 1588.1897 0.0000 0.0000 1366.5301 -8605.4910 236.0691 -9972.0211 -8601.8250 239.4166 -1214.8083 -1040.7955 29425.4753 4.2998 4.3073
TCL: Running 100000 steps at 270 kelvin.
TCL: Setting parameter langevinTemp to 270
TCL: Running for 100000 steps
ETITLE: TS BOND ANGLE DIHED IMPRP ELECT VDW BOUNDARY MISC KINETIC TOTAL TEMP POTENTIAL TOTAL3 TEMPAVG PRESSURE GPRESSURE VOLUME PRESSAVG GPRESSAVG
ENERGY: 800000 0.0000 0.0000 0.0000 0.0000 -11560.2108 1588.1897 0.0000 0.0000 1365.8660 -8606.1551 235.9544 -9972.0211 -8603.6196 235.9544 -1142.9994 -1041.5291 29425.4753 -1142.9994 -1041.5291
ENERGY: 900000 0.0000 0.0000 0.0000 0.0000 -11044.3600 1466.7919 0.0000 0.0000 1534.7054 -8042.8627 265.1215 -9577.5680 -8039.9578 270.4820 -648.1331 -578.8298 29470.8926 3.6867 3.6181
TCL: Running 1000000 steps at 300 kelvin.
TCL: Setting parameter langevinTemp to 300
TCL: Running for 1000000 steps
ETITLE: TS BOND ANGLE DIHED IMPRP ELECT VDW BOUNDARY MISC KINETIC TOTAL TEMP POTENTIAL TOTAL3 TEMPAVG PRESSURE GPRESSURE VOLUME PRESSAVG GPRESSAVG
ENERGY: 900000 0.0000 0.0000 0.0000 0.0000 -11044.3600 1466.7919 0.0000 0.0000 1533.9497 -8043.6184 264.9909 -9577.5680 -8041.0076 264.9909 -664.7921 -578.4060 29470.8926 -664.7921 -578.4060
ENERGY: 1100000 0.0000 0.0000 0.0000 0.0000 -10645.3421 1425.1497 0.0000 0.0000 1782.4434 -7437.7491 307.9184 -9220.1925 -7433.1856 300.5743 -157.0793 31.3079 30346.1074 2.5690 2.3897
ENERGY: 1300000 0.0000 0.0000 0.0000 0.0000 -10697.4939 1443.4259 0.0000 0.0000 1742.4223 -7511.6457 301.0047 -9254.0680 -7507.5404 300.1459 -52.4549 28.8171 30303.0195 4.0012 3.9625
ENERGY: 1500000 0.0000 0.0000 0.0000 0.0000 -10439.3959 1319.6095 0.0000 0.0000 1728.9189 -7390.8676 298.6720 -9119.7864 -7389.2654 300.1630 -486.3289 -400.9262 29931.7625 3.8037 3.8575
ENERGY: 1700000 0.0000 0.0000 0.0000 0.0000 -10615.1161 1433.7593 0.0000 0.0000 1705.3319 -7476.0249 294.5973 -9181.3568 -7474.6690 300.1666 104.9954 165.2104 30141.2659 3.6433 3.5431
ENERGY: 1900000 0.0000 0.0000 0.0000 0.0000 -10557.9396 1368.3053 0.0000 0.0000 1727.3784 -7462.2558 298.4059 -9189.6343 -7458.6120 300.0578 -198.7283 -170.1742 30160.0113 3.9692 3.6392
TCL: Exiting due to exit command.
