Info: SIMULATION PARAMETERS:
Info: TIMESTEP               2
Info: NUMBER OF STEPS        0
Info: STEPS PER CYCLE        10
Info: PERIODIC CELL BASIS 1  37.435 0 0
Info: PERIODIC CELL BASIS 2  0 34.26 0
Info: PERIODIC CELL BASIS 3  0 0 33.876
Info: PERIODIC CELL CENTER   0 0 0
Info: WRAPPING WATERS AROUND PERIODIC BOUNDARIES ON OUTPUT.
Info: WRAPPING ALL CLUSTERS AROUND PERIODIC BOUNDARIES ON OUTPUT.
Info: FIRST LDB TIMESTEP     50
Info: LAST LDB TIMESTEP     -1
Info: HOM BACKGROUND SCALING 1
Info: PME BACKGROUND SCALING 1
Info: MIN ATOMS PER PATCH    40
Info: EMPTY PATCH LOAD       40 ATOMS
Info: INITIAL TEMPERATURE    300
Info: CENTER OF MASS MOVING INITIALLY? NO
Info: DIELECTRIC             1
Info: EXCLUDE                SCALED ONE-FOUR
Info: 1-4 ELECTROSTATICS SCALED BY 0.833333
Info: MODIFIED 1-4 VDW PARAMETERS WILL BE USED
Info: DCD FILENAME           mobley_8337722_equil.dcd
Info: DCD FREQUENCY          100000
Info: DCD FIRST STEP         100000
Info: DCD FILE WILL CONTAIN UNIT CELL DATA
Info: XST FILENAME           mobley_8337722_equil.xst
Info: XST FREQUENCY          100000
Info: NO VELOCITY DCD OUTPUT
Info: NO FORCE DCD OUTPUT
Info: OUTPUT FILENAME        mobley_8337722_equil
Info: BINARY OUTPUT FILES WILL BE USED
Info: RESTART FILENAME       mobley_8337722_equil.restart
Info: RESTART FREQUENCY      100000
Info: BINARY RESTART FILES WILL BE USED
Info: CUTOFF                 9
Info: PAIRLIST DISTANCE      11
Info: PAIRLIST SHRINK RATE   0.01
Info: PAIRLIST GROW RATE     0.01
Info: PAIRLIST TRIGGER       0.3
Info: PAIRLISTS PER CYCLE    2
Info: PAIRLISTS ENABLED
Info: MARGIN                 8
Info: HYDROGEN GROUP CUTOFF  2.5
Info: PATCH DIMENSION        21.5
Info: ENERGY OUTPUT STEPS    100000
Info: ENERGY EVALUATION STEPS    100000
Info: OUTPUT ENERGY PRECISION 4
Info: CROSSTERM ENERGY INCLUDED IN DIHEDRAL
Info: TIMING OUTPUT STEPS    1000000
Info: PRESSURE OUTPUT STEPS  100000
Info: FIXED ATOMS ACTIVE
Info: LANGEVIN DYNAMICS ACTIVE
Info: LANGEVIN TEMPERATURE   30
Info: LANGEVIN USING BBK INTEGRATOR
Info: LANGEVIN DAMPING COEFFICIENT IS 1 INVERSE PS
Info: LANGEVIN DYNAMICS APPLIED TO HYDROGENS
Info: LANGEVIN PISTON PRESSURE CONTROL ACTIVE
Info:        TARGET PRESSURE IS 1.01325 BAR
Info:     OSCILLATION PERIOD IS 50 FS
Info:             DECAY TIME IS 25 FS
Info:     PISTON TEMPERATURE IS 300 K
Info:       PRESSURE CONTROL IS GROUP-BASED
Info:    INITIAL STRAIN RATE IS 0 0 0
Info:       CELL FLUCTUATION IS ISOTROPIC
Info: PARTICLE MESH EWALD (PME) ACTIVE
Info: PME TOLERANCE               1e-06
Info: PME EWALD COEFFICIENT       0.348832
Info: PME INTERPOLATION ORDER     4
Info: PME GRID DIMENSIONS         40 36 36
Info: PME MAXIMUM GRID SPACING    1
Info: FULL ELECTROSTATIC EVALUATION FREQUENCY      2
Info: USING VERLET I (r-RESPA) MTS SCHEME.
Info: C1 SPLITTING OF LONG RANGE ELECTROSTATICS
Info: PLACING ATOMS IN PATCHES BY HYDROGEN GROUPS
Info: RIGID BONDS TO HYDROGEN : ALL
Info:         ERROR TOLERANCE : 1e-08
Info:          MAX ITERATIONS : 100
Info: RIGID WATER USING SETTLE ALGORITHM
Info: RANDOM NUMBER SEED     1744764513
Info: USE HYDROGEN BONDS?    NO
Info: Using AMBER format force field!
Info: AMBER PARM FILE        mobley_8337722.prmtop
Info: COORDINATE PDB         mobley_8337722.pdb
Info: Exclusions will be read from PARM file!
Info: SCNB (VDW SCALING)     2
Info: USING ARITHMETIC MEAN TO COMBINE L-J SIGMA PARAMETERS
Info: BINARY COORDINATES     mobley_8337722_min.coor
Info: SUMMARY OF PARAMETERS:
Info: 7 BONDS
Info: 7 ANGLES
Info:   7 HARMONIC
Info:   0 COSINE-BASED
Info: 9 DIHEDRAL
Info: 0 IMPROPER
Info: 0 CROSSTERM
Info: 0 VDW
Info: 21 VDW_PAIRS
Info: 0 NBTHOLE_PAIRS
Info: STRUCTURE SUMMARY:
Info: 2971 ATOMS
Info: 2971 BONDS
Info: 61 ANGLES
Info: 126 DIHEDRALS
Info: 0 IMPROPERS
Info: 0 CROSSTERMS
Info: 3122 EXCLUSIONS
Info: 31 FIXED ATOMS
Info: 2960 RIGID BONDS
Info: 20 RIGID BONDS BETWEEN FIXED ATOMS
Info: 5880 DEGREES OF FREEDOM
Info: 991 HYDROGEN GROUPS
Info: 4 ATOMS IN LARGEST HYDROGEN GROUP
Info: 991 MIGRATION GROUPS
Info: 4 ATOMS IN LARGEST MIGRATION GROUP
Info: 11 HYDROGEN GROUPS WITH ALL ATOMS FIXED
Info: TOTAL MASS = 17811.9 amu
Info: TOTAL CHARGE = -1.86265e-08 e
Info: MASS DENSITY = 0.68079 g/cm^3
Info: ATOM DENSITY = 0.0683826 atoms/A^3
Info: ADDED 0 IMPLICIT EXCLUSIONS
Info: NONBONDED TABLE R-SQUARED SPACING: 0.0625
Info: NONBONDED TABLE SIZE: 705 POINTS
Info: REMOVING COM VELOCITY 0.0770386 -0.0174315 0.300306
TCL: Running for 100000 steps
ETITLE: TS BOND ANGLE DIHED IMPRP ELECT VDW BOUNDARY MISC KINETIC TOTAL TEMP POTENTIAL TOTAL3 TEMPAVG PRESSURE GPRESSURE VOLUME PRESSAVG GPRESSAVG
ENERGY: 0 0.0000 0.0000 0.0000 0.0000 -13683.9579 2384.8293 0.0000 0.0000 1732.9188 -9566.2098 296.6137 -11299.1286 -9565.8858 296.6137 288.6192 331.7122 43446.7525 288.6192 331.7122
ENERGY: 100000 0.0000 0.0000 0.0000 0.0000 -14294.2476 2476.4561 0.0000 0.0000 176.2639 -11641.5276 30.1701 -11817.7915 -11640.9675 30.9759 -177.9541 -129.6178 28997.2649 4.0932 4.0771
TCL: Running 100000 steps at 60 kelvin.
TCL: Setting parameter langevinTemp to 60
TCL: Running for 100000 steps
ETITLE: TS BOND ANGLE DIHED IMPRP ELECT VDW BOUNDARY MISC KINETIC TOTAL TEMP POTENTIAL TOTAL3 TEMPAVG PRESSURE GPRESSURE VOLUME PRESSAVG GPRESSAVG
ENERGY: 100000 0.0000 0.0000 0.0000 0.0000 -14294.2476 2476.4561 0.0000 0.0000 176.1810 -11641.6105 30.1559 -11817.7915 -11641.2035 30.1559 -179.6436 -129.2935 28997.2649 -179.6436 -129.2935
ENERGY: 200000 0.0000 0.0000 0.0000 0.0000 -14170.2175 2424.7929 0.0000 0.0000 347.4727 -11397.9519 59.4749 -11745.4246 -11397.0548 59.8465 -328.3218 -265.7448 29091.0902 4.2936 4.2484
TCL: Running 100000 steps at 90 kelvin.
TCL: Setting parameter langevinTemp to 90
TCL: Running for 100000 steps
ETITLE: TS BOND ANGLE DIHED IMPRP ELECT VDW BOUNDARY MISC KINETIC TOTAL TEMP POTENTIAL TOTAL3 TEMPAVG PRESSURE GPRESSURE VOLUME PRESSAVG GPRESSAVG
ENERGY: 200000 0.0000 0.0000 0.0000 0.0000 -14170.2175 2424.7929 0.0000 0.0000 347.2955 -11398.1291 59.4446 -11745.4246 -11397.3217 59.4446 -312.1587 -265.7032 29091.0902 -312.1587 -265.7032
ENERGY: 300000 0.0000 0.0000 0.0000 0.0000 -13885.3856 2259.9403 0.0000 0.0000 532.9692 -11092.4761 91.2253 -11625.4453 -11090.6293 89.7601 -1212.0302 -1112.9782 29250.3529 2.9522 2.9491
TCL: Running 100000 steps at 120 kelvin.
TCL: Setting parameter langevinTemp to 120
TCL: Running for 100000 steps
ETITLE: TS BOND ANGLE DIHED IMPRP ELECT VDW BOUNDARY MISC KINETIC TOTAL TEMP POTENTIAL TOTAL3 TEMPAVG PRESSURE GPRESSURE VOLUME PRESSAVG GPRESSAVG
ENERGY: 300000 0.0000 0.0000 0.0000 0.0000 -13885.3856 2259.9403 0.0000 0.0000 532.7059 -11092.7394 91.1802 -11625.4453 -11091.5874 91.1802 -1170.4486 -1112.7165 29250.3529 -1170.4486 -1112.7165
ENERGY: 400000 0.0000 0.0000 0.0000 0.0000 -13990.0361 2468.6273 0.0000 0.0000 700.7618 -10820.6469 119.9454 -11521.4088 -10818.9093 119.7748 1327.4014 1373.1764 28479.6643 3.4955 3.5164
TCL: Running 100000 steps at 150 kelvin.
TCL: Setting parameter langevinTemp to 150
TCL: Running for 100000 steps
ETITLE: TS BOND ANGLE DIHED IMPRP ELECT VDW BOUNDARY MISC KINETIC TOTAL TEMP POTENTIAL TOTAL3 TEMPAVG PRESSURE GPRESSURE VOLUME PRESSAVG GPRESSAVG
ENERGY: 400000 0.0000 0.0000 0.0000 0.0000 -13990.0361 2468.6273 0.0000 0.0000 700.4056 -10821.0031 119.8844 -11521.4088 -10819.8916 119.8844 1332.8333 1373.7244 28479.6643 1332.8333 1373.7244
ENERGY: 500000 0.0000 0.0000 0.0000 0.0000 -13361.0993 2048.8491 0.0000 0.0000 863.8332 -10448.4170 147.8574 -11312.2502 -10446.4582 150.0517 -1660.2374 -1553.6025 29145.6922 4.9368 4.9059
TCL: Running 100000 steps at 180 kelvin.
TCL: Setting parameter langevinTemp to 180
TCL: Running for 100000 steps
ETITLE: TS BOND ANGLE DIHED IMPRP ELECT VDW BOUNDARY MISC KINETIC TOTAL TEMP POTENTIAL TOTAL3 TEMPAVG PRESSURE GPRESSURE VOLUME PRESSAVG GPRESSAVG
ENERGY: 500000 0.0000 0.0000 0.0000 0.0000 -13361.0993 2048.8491 0.0000 0.0000 863.3822 -10448.8681 147.7802 -11312.2502 -10446.7516 147.7802 -1632.3739 -1553.8326 29145.6922 -1632.3739 -1553.8326
ENERGY: 600000 0.0000 0.0000 0.0000 0.0000 -13287.1778 2202.4285 0.0000 0.0000 993.7284 -10091.0208 170.0908 -11084.7493 -10087.7736 180.0763 476.1391 548.6501 29013.7577 2.1636 2.1063
TCL: Running 100000 steps at 210 kelvin.
TCL: Setting parameter langevinTemp to 210
TCL: Running for 100000 steps
ETITLE: TS BOND ANGLE DIHED IMPRP ELECT VDW BOUNDARY MISC KINETIC TOTAL TEMP POTENTIAL TOTAL3 TEMPAVG PRESSURE GPRESSURE VOLUME PRESSAVG GPRESSAVG
ENERGY: 600000 0.0000 0.0000 0.0000 0.0000 -13287.1778 2202.4285 0.0000 0.0000 993.2148 -10091.5345 170.0029 -11084.7493 -10089.8077 170.0029 489.9526 549.3440 29013.7577 489.9526 549.3440
ENERGY: 700000 0.0000 0.0000 0.0000 0.0000 -12576.0306 1937.2541 0.0000 0.0000 1226.8571 -9411.9194 209.9941 -10638.7765 -9409.4768 209.5971 288.0458 368.1870 28676.1131 5.8886 5.7522
TCL: Running 100000 steps at 240 kelvin.
TCL: Setting parameter langevinTemp to 240
TCL: Running for 100000 steps
ETITLE: TS BOND ANGLE DIHED IMPRP ELECT VDW BOUNDARY MISC KINETIC TOTAL TEMP POTENTIAL TOTAL3 TEMPAVG PRESSURE GPRESSURE VOLUME PRESSAVG GPRESSAVG
ENERGY: 700000 0.0000 0.0000 0.0000 0.0000 -12576.0306 1937.2541 0.0000 0.0000 1226.2112 -9412.5653 209.8835 -10638.7765 -9410.7050 209.8835 280.7769 367.8428 28676.1131 280.7769 367.8428
ENERGY: 800000 0.0000 0.0000 0.0000 0.0000 -11803.6713 1696.2123 0.0000 0.0000 1390.6491 -8716.8099 238.0294 -10107.4590 -8713.1255 239.3200 -71.3156 2.4791 29253.0477 3.4047 3.2911
TCL: Running 100000 steps at 270 kelvin.
TCL: Setting parameter langevinTemp to 270
TCL: Running for 100000 steps
ETITLE: TS BOND ANGLE DIHED IMPRP ELECT VDW BOUNDARY MISC KINETIC TOTAL TEMP POTENTIAL TOTAL3 TEMPAVG PRESSURE GPRESSURE VOLUME PRESSAVG GPRESSAVG
ENERGY: 800000 0.0000 0.0000 0.0000 0.0000 -11803.6713 1696.2123 0.0000 0.0000 1389.9727 -8717.4863 237.9136 -10107.4590 -8715.3269 237.9136 -85.8695 2.4771 29253.0477 -85.8695 2.4771
ENERGY: 900000 0.0000 0.0000 0.0000 0.0000 -11392.4900 1685.0638 0.0000 0.0000 1594.5578 -8112.8683 272.9313 -9707.4262 -8109.1262 270.1961 922.0545 953.3177 29967.2996 2.5876 2.6832
TCL: Running 1000000 steps at 300 kelvin.
TCL: Setting parameter langevinTemp to 300
TCL: Running for 1000000 steps
ETITLE: TS BOND ANGLE DIHED IMPRP ELECT VDW BOUNDARY MISC KINETIC TOTAL TEMP POTENTIAL TOTAL3 TEMPAVG PRESSURE GPRESSURE VOLUME PRESSAVG GPRESSAVG
ENERGY: 900000 0.0000 0.0000 0.0000 0.0000 -11392.4900 1685.0638 0.0000 0.0000 1593.7451 -8113.6810 272.7922 -9707.4262 -8112.0597 272.7922 884.8021 955.5833 29967.2996 884.8021 955.5833
ENERGY: 1100000 0.0000 0.0000 0.0000 0.0000 -10699.7092 1344.8392 0.0000 0.0000 1745.8189 -7609.0511 298.8218 -9354.8700 -7606.1991 299.8372 -850.4141 -770.7358 30689.2007 3.6741 3.5608
ENERGY: 1300000 0.0000 0.0000 0.0000 0.0000 -10771.2727 1388.2956 0.0000 0.0000 1774.0105 -7608.9665 303.6472 -9382.9771 -7608.9361 300.5197 -378.4960 -310.3213 30196.1685 3.3200 3.1836
ENERGY: 1500000 0.0000 0.0000 0.0000 0.0000 -10767.2088 1476.2213 0.0000 0.0000 1748.1073 -7542.8803 299.2135 -9290.9875 -7539.4324 299.8430 344.1743 374.8553 30661.2176 3.8560 3.6032
ENERGY: 1700000 0.0000 0.0000 0.0000 0.0000 -10844.8115 1452.5184 0.0000 0.0000 1749.0525 -7643.2405 299.3753 -9392.2930 -7639.5429 299.5992 -10.0263 79.2722 30388.9050 2.4024 2.3496
ENERGY: 1900000 0.0000 0.0000 0.0000 0.0000 -10706.9021 1404.3556 0.0000 0.0000 1729.1328 -7573.4137 295.9657 -9302.5465 -7568.7475 300.2350 -351.1976 -314.9625 30894.0409 2.2550 2.1521
TCL: Exiting due to exit command.
