Info: SIMULATION PARAMETERS:
Info: TIMESTEP               2
Info: NUMBER OF STEPS        0
Info: STEPS PER CYCLE        10
Info: PERIODIC CELL BASIS 1  36.592 0 0
Info: PERIODIC CELL BASIS 2  0 34.26 0
Info: PERIODIC CELL BASIS 3  0 0 34.68
Info: PERIODIC CELL CENTER   0 0 0
Info: WRAPPING WATERS AROUND PERIODIC BOUNDARIES ON OUTPUT.
Info: WRAPPING ALL CLUSTERS AROUND PERIODIC BOUNDARIES ON OUTPUT.
Info: FIRST LDB TIMESTEP     50
Info: LAST LDB TIMESTEP     -1
Info: HOM BACKGROUND SCALING 1
Info: PME BACKGROUND SCALING 1
Info: MIN ATOMS PER PATCH    40
Info: EMPTY PATCH LOAD       40 ATOMS
Info: INITIAL TEMPERATURE    300
Info: CENTER OF MASS MOVING INITIALLY? NO
Info: DIELECTRIC             1
Info: EXCLUDE                SCALED ONE-FOUR
Info: 1-4 ELECTROSTATICS SCALED BY 0.833333
Info: MODIFIED 1-4 VDW PARAMETERS WILL BE USED
Info: DCD FILENAME           mobley_1139153_equil.dcd
Info: DCD FREQUENCY          100000
Info: DCD FIRST STEP         100000
Info: DCD FILE WILL CONTAIN UNIT CELL DATA
Info: XST FILENAME           mobley_1139153_equil.xst
Info: XST FREQUENCY          100000
Info: NO VELOCITY DCD OUTPUT
Info: NO FORCE DCD OUTPUT
Info: OUTPUT FILENAME        mobley_1139153_equil
Info: BINARY OUTPUT FILES WILL BE USED
Info: RESTART FILENAME       mobley_1139153_equil.restart
Info: RESTART FREQUENCY      100000
Info: BINARY RESTART FILES WILL BE USED
Info: CUTOFF                 9
Info: PAIRLIST DISTANCE      11
Info: PAIRLIST SHRINK RATE   0.01
Info: PAIRLIST GROW RATE     0.01
Info: PAIRLIST TRIGGER       0.3
Info: PAIRLISTS PER CYCLE    2
Info: PAIRLISTS ENABLED
Info: MARGIN                 8
Info: HYDROGEN GROUP CUTOFF  2.5
Info: PATCH DIMENSION        21.5
Info: ENERGY OUTPUT STEPS    100000
Info: ENERGY EVALUATION STEPS    100000
Info: OUTPUT ENERGY PRECISION 4
Info: CROSSTERM ENERGY INCLUDED IN DIHEDRAL
Info: TIMING OUTPUT STEPS    1000000
Info: PRESSURE OUTPUT STEPS  100000
Info: FIXED ATOMS ACTIVE
Info: LANGEVIN DYNAMICS ACTIVE
Info: LANGEVIN TEMPERATURE   30
Info: LANGEVIN USING BBK INTEGRATOR
Info: LANGEVIN DAMPING COEFFICIENT IS 1 INVERSE PS
Info: LANGEVIN DYNAMICS APPLIED TO HYDROGENS
Info: LANGEVIN PISTON PRESSURE CONTROL ACTIVE
Info:        TARGET PRESSURE IS 1.01325 BAR
Info:     OSCILLATION PERIOD IS 50 FS
Info:             DECAY TIME IS 25 FS
Info:     PISTON TEMPERATURE IS 300 K
Info:       PRESSURE CONTROL IS GROUP-BASED
Info:    INITIAL STRAIN RATE IS 0 0 0
Info:       CELL FLUCTUATION IS ISOTROPIC
Info: PARTICLE MESH EWALD (PME) ACTIVE
Info: PME TOLERANCE               1e-06
Info: PME EWALD COEFFICIENT       0.348832
Info: PME INTERPOLATION ORDER     4
Info: PME GRID DIMENSIONS         40 36 36
Info: PME MAXIMUM GRID SPACING    1
Info: FULL ELECTROSTATIC EVALUATION FREQUENCY      2
Info: USING VERLET I (r-RESPA) MTS SCHEME.
Info: C1 SPLITTING OF LONG RANGE ELECTROSTATICS
Info: PLACING ATOMS IN PATCHES BY HYDROGEN GROUPS
Info: RIGID BONDS TO HYDROGEN : ALL
Info:         ERROR TOLERANCE : 1e-08
Info:          MAX ITERATIONS : 100
Info: RIGID WATER USING SETTLE ALGORITHM
Info: RANDOM NUMBER SEED     1744762920
Info: USE HYDROGEN BONDS?    NO
Info: Using AMBER format force field!
Info: AMBER PARM FILE        mobley_1139153.prmtop
Info: COORDINATE PDB         mobley_1139153.pdb
Info: Exclusions will be read from PARM file!
Info: SCNB (VDW SCALING)     2
Info: USING ARITHMETIC MEAN TO COMBINE L-J SIGMA PARAMETERS
Info: BINARY COORDINATES     mobley_1139153_min.coor
Info: SUMMARY OF PARAMETERS:
Info: 4 BONDS
Info: 3 ANGLES
Info:   3 HARMONIC
Info:   0 COSINE-BASED
Info: 5 DIHEDRAL
Info: 0 IMPROPER
Info: 0 CROSSTERM
Info: 0 VDW
Info: 10 VDW_PAIRS
Info: 0 NBTHOLE_PAIRS
Info: STRUCTURE SUMMARY:
Info: 2915 ATOMS
Info: 2914 BONDS
Info: 48 ANGLES
Info: 73 DIHEDRALS
Info: 0 IMPROPERS
Info: 0 CROSSTERMS
Info: 3025 EXCLUSIONS
Info: 26 FIXED ATOMS
Info: 2907 RIGID BONDS
Info: 18 RIGID BONDS BETWEEN FIXED ATOMS
Info: 5778 DEGREES OF FREEDOM
Info: 971 HYDROGEN GROUPS
Info: 4 ATOMS IN LARGEST HYDROGEN GROUP
Info: 971 MIGRATION GROUPS
Info: 4 ATOMS IN LARGEST MIGRATION GROUP
Info: 8 HYDROGEN GROUPS WITH ALL ATOMS FIXED
Info: TOTAL MASS = 17463.6 amu
Info: TOTAL CHARGE = -0.000100009 e
Info: MASS DENSITY = 0.667024 g/cm^3
Info: ATOM DENSITY = 0.067048 atoms/A^3
Info: ADDED 0 IMPLICIT EXCLUSIONS
Info: NONBONDED TABLE R-SQUARED SPACING: 0.0625
Info: NONBONDED TABLE SIZE: 705 POINTS
Info: REMOVING COM VELOCITY 0.112307 -0.0253856 -0.0730347
TCL: Running for 100000 steps
ETITLE: TS BOND ANGLE DIHED IMPRP ELECT VDW BOUNDARY MISC KINETIC TOTAL TEMP POTENTIAL TOTAL3 TEMPAVG PRESSURE GPRESSURE VOLUME PRESSAVG GPRESSAVG
ENERGY: 0 0.0000 0.0000 0.0000 0.0000 -13401.4270 2374.9440 0.0000 0.0000 1672.2072 -9354.2758 291.2748 -11026.4830 -9353.9777 291.2748 350.4280 383.9259 43476.3018 350.4280 383.9259
ENERGY: 100000 0.0000 0.0000 0.0000 0.0000 -14050.9123 2514.7177 0.0000 0.0000 171.6146 -11364.5800 29.8928 -11536.1946 -11364.2324 30.9249 488.2749 557.6562 29353.4447 5.6924 5.7480
TCL: Running 100000 steps at 60 kelvin.
TCL: Setting parameter langevinTemp to 60
TCL: Running for 100000 steps
ETITLE: TS BOND ANGLE DIHED IMPRP ELECT VDW BOUNDARY MISC KINETIC TOTAL TEMP POTENTIAL TOTAL3 TEMPAVG PRESSURE GPRESSURE VOLUME PRESSAVG GPRESSAVG
ENERGY: 100000 0.0000 0.0000 0.0000 0.0000 -14050.9123 2514.7177 0.0000 0.0000 171.5280 -11364.6666 29.8778 -11536.1946 -11364.2799 29.8778 495.4431 557.5032 29353.4447 495.4431 557.5032
ENERGY: 200000 0.0000 0.0000 0.0000 0.0000 -13845.1163 2390.5347 0.0000 0.0000 350.8422 -11103.7395 61.1117 -11454.5816 -11102.1988 59.8655 -71.4809 -3.5416 29250.7400 2.7890 2.8426
TCL: Running 100000 steps at 90 kelvin.
TCL: Setting parameter langevinTemp to 90
TCL: Running for 100000 steps
ETITLE: TS BOND ANGLE DIHED IMPRP ELECT VDW BOUNDARY MISC KINETIC TOTAL TEMP POTENTIAL TOTAL3 TEMPAVG PRESSURE GPRESSURE VOLUME PRESSAVG GPRESSAVG
ENERGY: 200000 0.0000 0.0000 0.0000 0.0000 -13845.1163 2390.5347 0.0000 0.0000 350.6769 -11103.9047 61.0830 -11454.5816 -11103.0377 61.0830 -56.2328 -2.9794 29250.7400 -56.2328 -2.9794
ENERGY: 300000 0.0000 0.0000 0.0000 0.0000 -13729.1797 2372.8753 0.0000 0.0000 507.2069 -10849.0975 88.3483 -11356.3044 -10849.0775 89.9384 225.4557 312.3146 28606.7976 3.0566 3.0016
TCL: Running 100000 steps at 120 kelvin.
TCL: Setting parameter langevinTemp to 120
TCL: Running for 100000 steps
ETITLE: TS BOND ANGLE DIHED IMPRP ELECT VDW BOUNDARY MISC KINETIC TOTAL TEMP POTENTIAL TOTAL3 TEMPAVG PRESSURE GPRESSURE VOLUME PRESSAVG GPRESSAVG
ENERGY: 300000 0.0000 0.0000 0.0000 0.0000 -13729.1797 2372.8753 0.0000 0.0000 506.9468 -10849.3576 88.3030 -11356.3044 -10848.3898 88.3030 251.2985 311.2164 28606.7976 251.2985 311.2164
ENERGY: 400000 0.0000 0.0000 0.0000 0.0000 -13523.1719 2283.5726 0.0000 0.0000 684.7836 -10554.8157 119.2796 -11239.5993 -10553.1720 119.8154 52.4393 103.5960 28455.6925 4.3019 4.4077
TCL: Running 100000 steps at 150 kelvin.
TCL: Setting parameter langevinTemp to 150
TCL: Running for 100000 steps
ETITLE: TS BOND ANGLE DIHED IMPRP ELECT VDW BOUNDARY MISC KINETIC TOTAL TEMP POTENTIAL TOTAL3 TEMPAVG PRESSURE GPRESSURE VOLUME PRESSAVG GPRESSAVG
ENERGY: 400000 0.0000 0.0000 0.0000 0.0000 -13523.1719 2283.5726 0.0000 0.0000 684.4511 -10555.1482 119.2217 -11239.5993 -10553.5672 119.2217 52.0399 103.2208 28455.6925 52.0399 103.2208
ENERGY: 500000 0.0000 0.0000 0.0000 0.0000 -13230.0584 2126.9163 0.0000 0.0000 880.2488 -10222.8933 153.3269 -11103.1421 -10220.7378 149.7050 -599.2082 -528.6628 28214.4357 3.7225 3.6310
TCL: Running 100000 steps at 180 kelvin.
TCL: Setting parameter langevinTemp to 180
TCL: Running for 100000 steps
ETITLE: TS BOND ANGLE DIHED IMPRP ELECT VDW BOUNDARY MISC KINETIC TOTAL TEMP POTENTIAL TOTAL3 TEMPAVG PRESSURE GPRESSURE VOLUME PRESSAVG GPRESSAVG
ENERGY: 500000 0.0000 0.0000 0.0000 0.0000 -13230.0584 2126.9163 0.0000 0.0000 879.8213 -10223.3208 153.2524 -11103.1421 -10220.9892 153.2524 -585.1063 -528.5526 28214.4357 -585.1063 -528.5526
ENERGY: 600000 0.0000 0.0000 0.0000 0.0000 -12802.6666 2001.9649 0.0000 0.0000 1082.5566 -9718.1451 188.5660 -10800.7018 -9716.0760 180.2968 -752.1255 -702.0710 28752.6890 3.2487 3.3074
TCL: Running 100000 steps at 210 kelvin.
TCL: Setting parameter langevinTemp to 210
TCL: Running for 100000 steps
ETITLE: TS BOND ANGLE DIHED IMPRP ELECT VDW BOUNDARY MISC KINETIC TOTAL TEMP POTENTIAL TOTAL3 TEMPAVG PRESSURE GPRESSURE VOLUME PRESSAVG GPRESSAVG
ENERGY: 600000 0.0000 0.0000 0.0000 0.0000 -12802.6666 2001.9649 0.0000 0.0000 1082.0342 -9718.6676 188.4750 -10800.7018 -9716.2776 188.4750 -751.2291 -702.5289 28752.6890 -751.2291 -702.5289
ENERGY: 700000 0.0000 0.0000 0.0000 0.0000 -12225.6203 1884.8679 0.0000 0.0000 1218.3461 -9122.4063 212.2186 -10340.7524 -9120.8984 209.6118 111.0073 162.1166 28463.5583 2.8118 2.6581
TCL: Running 100000 steps at 240 kelvin.
TCL: Setting parameter langevinTemp to 240
TCL: Running for 100000 steps
ETITLE: TS BOND ANGLE DIHED IMPRP ELECT VDW BOUNDARY MISC KINETIC TOTAL TEMP POTENTIAL TOTAL3 TEMPAVG PRESSURE GPRESSURE VOLUME PRESSAVG GPRESSAVG
ENERGY: 700000 0.0000 0.0000 0.0000 0.0000 -12225.6203 1884.8679 0.0000 0.0000 1217.7392 -9123.0132 212.1129 -10340.7524 -9121.4236 212.1129 90.2662 161.1625 28463.5583 90.2662 161.1625
ENERGY: 800000 0.0000 0.0000 0.0000 0.0000 -11575.2452 1636.8714 0.0000 0.0000 1426.7535 -8511.6203 248.5202 -9938.3738 -8508.7893 239.9171 -240.2148 -129.6345 28406.5686 3.0120 3.0038
TCL: Running 100000 steps at 270 kelvin.
TCL: Setting parameter langevinTemp to 270
TCL: Running for 100000 steps
ETITLE: TS BOND ANGLE DIHED IMPRP ELECT VDW BOUNDARY MISC KINETIC TOTAL TEMP POTENTIAL TOTAL3 TEMPAVG PRESSURE GPRESSURE VOLUME PRESSAVG GPRESSAVG
ENERGY: 800000 0.0000 0.0000 0.0000 0.0000 -11575.2452 1636.8714 0.0000 0.0000 1426.0561 -8512.3177 248.3988 -9938.3738 -8510.2554 248.3988 -202.8443 -128.3279 28406.5686 -202.8443 -128.3279
ENERGY: 900000 0.0000 0.0000 0.0000 0.0000 -11123.0878 1550.1497 0.0000 0.0000 1536.4376 -8036.5005 267.6257 -9572.9381 -8032.0800 270.1439 -336.6615 -216.7612 29259.0014 3.0142 3.0577
TCL: Running 1000000 steps at 300 kelvin.
TCL: Setting parameter langevinTemp to 300
TCL: Running for 1000000 steps
ETITLE: TS BOND ANGLE DIHED IMPRP ELECT VDW BOUNDARY MISC KINETIC TOTAL TEMP POTENTIAL TOTAL3 TEMPAVG PRESSURE GPRESSURE VOLUME PRESSAVG GPRESSAVG
ENERGY: 900000 0.0000 0.0000 0.0000 0.0000 -11123.0878 1550.1497 0.0000 0.0000 1535.6657 -8037.2724 267.4912 -9572.9381 -8033.9890 267.4912 -305.1747 -215.6872 29259.0014 -305.1747 -215.6872
ENERGY: 1100000 0.0000 0.0000 0.0000 0.0000 -10590.6614 1434.3865 0.0000 0.0000 1747.7920 -7408.4829 304.4406 -9156.2749 -7402.7019 300.4808 -21.0430 59.2853 30232.8110 3.9852 3.9030
ENERGY: 1300000 0.0000 0.0000 0.0000 0.0000 -10603.0263 1510.4207 0.0000 0.0000 1742.7063 -7349.8994 303.5548 -9092.6057 -7345.3049 300.5414 577.8850 679.1503 30237.3348 3.7778 3.6112
ENERGY: 1500000 0.0000 0.0000 0.0000 0.0000 -10384.4485 1390.6232 0.0000 0.0000 1816.8277 -7176.9976 316.4657 -8993.8253 -7174.0207 300.3394 126.5509 171.2235 30512.3900 2.5795 2.7470
ENERGY: 1700000 0.0000 0.0000 0.0000 0.0000 -10532.5134 1409.5236 0.0000 0.0000 1791.5759 -7331.4139 312.0671 -9122.9897 -7327.0555 300.1763 110.2919 212.1511 29893.1767 2.8388 2.8189
ENERGY: 1900000 0.0000 0.0000 0.0000 0.0000 -10474.3313 1372.0030 0.0000 0.0000 1736.5060 -7365.8223 302.4748 -9102.3284 -7360.4450 299.7908 -538.5074 -502.3201 30418.4967 3.9650 3.7899
TCL: Exiting due to exit command.
