Info: SIMULATION PARAMETERS:
Info: TIMESTEP               2
Info: NUMBER OF STEPS        0
Info: STEPS PER CYCLE        10
Info: PERIODIC CELL BASIS 1  37.133 0 0
Info: PERIODIC CELL BASIS 2  0 34.457 0
Info: PERIODIC CELL BASIS 3  0 0 34.229
Info: PERIODIC CELL CENTER   0 0 0
Info: WRAPPING WATERS AROUND PERIODIC BOUNDARIES ON OUTPUT.
Info: WRAPPING ALL CLUSTERS AROUND PERIODIC BOUNDARIES ON OUTPUT.
Info: FIRST LDB TIMESTEP     50
Info: LAST LDB TIMESTEP     -1
Info: HOM BACKGROUND SCALING 1
Info: PME BACKGROUND SCALING 1
Info: MIN ATOMS PER PATCH    40
Info: EMPTY PATCH LOAD       40 ATOMS
Info: INITIAL TEMPERATURE    300
Info: CENTER OF MASS MOVING INITIALLY? NO
Info: DIELECTRIC             1
Info: EXCLUDE                SCALED ONE-FOUR
Info: 1-4 ELECTROSTATICS SCALED BY 0.833333
Info: MODIFIED 1-4 VDW PARAMETERS WILL BE USED
Info: DCD FILENAME           mobley_3083321_equil.dcd
Info: DCD FREQUENCY          100000
Info: DCD FIRST STEP         100000
Info: DCD FILE WILL CONTAIN UNIT CELL DATA
Info: XST FILENAME           mobley_3083321_equil.xst
Info: XST FREQUENCY          100000
Info: NO VELOCITY DCD OUTPUT
Info: NO FORCE DCD OUTPUT
Info: OUTPUT FILENAME        mobley_3083321_equil
Info: BINARY OUTPUT FILES WILL BE USED
Info: RESTART FILENAME       mobley_3083321_equil.restart
Info: RESTART FREQUENCY      100000
Info: BINARY RESTART FILES WILL BE USED
Info: CUTOFF                 9
Info: PAIRLIST DISTANCE      11
Info: PAIRLIST SHRINK RATE   0.01
Info: PAIRLIST GROW RATE     0.01
Info: PAIRLIST TRIGGER       0.3
Info: PAIRLISTS PER CYCLE    2
Info: PAIRLISTS ENABLED
Info: MARGIN                 8
Info: HYDROGEN GROUP CUTOFF  2.5
Info: PATCH DIMENSION        21.5
Info: ENERGY OUTPUT STEPS    100000
Info: ENERGY EVALUATION STEPS    100000
Info: OUTPUT ENERGY PRECISION 4
Info: CROSSTERM ENERGY INCLUDED IN DIHEDRAL
Info: TIMING OUTPUT STEPS    1000000
Info: PRESSURE OUTPUT STEPS  100000
Info: FIXED ATOMS ACTIVE
Info: LANGEVIN DYNAMICS ACTIVE
Info: LANGEVIN TEMPERATURE   30
Info: LANGEVIN USING BBK INTEGRATOR
Info: LANGEVIN DAMPING COEFFICIENT IS 1 INVERSE PS
Info: LANGEVIN DYNAMICS APPLIED TO HYDROGENS
Info: LANGEVIN PISTON PRESSURE CONTROL ACTIVE
Info:        TARGET PRESSURE IS 1.01325 BAR
Info:     OSCILLATION PERIOD IS 50 FS
Info:             DECAY TIME IS 25 FS
Info:     PISTON TEMPERATURE IS 300 K
Info:       PRESSURE CONTROL IS GROUP-BASED
Info:    INITIAL STRAIN RATE IS 0 0 0
Info:       CELL FLUCTUATION IS ISOTROPIC
Info: PARTICLE MESH EWALD (PME) ACTIVE
Info: PME TOLERANCE               1e-06
Info: PME EWALD COEFFICIENT       0.348832
Info: PME INTERPOLATION ORDER     4
Info: PME GRID DIMENSIONS         40 36 36
Info: PME MAXIMUM GRID SPACING    1
Info: FULL ELECTROSTATIC EVALUATION FREQUENCY      2
Info: USING VERLET I (r-RESPA) MTS SCHEME.
Info: C1 SPLITTING OF LONG RANGE ELECTROSTATICS
Info: PLACING ATOMS IN PATCHES BY HYDROGEN GROUPS
Info: RIGID BONDS TO HYDROGEN : ALL
Info:         ERROR TOLERANCE : 1e-08
Info:          MAX ITERATIONS : 100
Info: RIGID WATER USING SETTLE ALGORITHM
Info: RANDOM NUMBER SEED     1744764280
Info: USE HYDROGEN BONDS?    NO
Info: Using AMBER format force field!
Info: AMBER PARM FILE        mobley_3083321.prmtop
Info: COORDINATE PDB         mobley_3083321.pdb
Info: Exclusions will be read from PARM file!
Info: SCNB (VDW SCALING)     2
Info: USING ARITHMETIC MEAN TO COMBINE L-J SIGMA PARAMETERS
Info: BINARY COORDINATES     mobley_3083321_min.coor
Info: SUMMARY OF PARAMETERS:
Info: 5 BONDS
Info: 6 ANGLES
Info:   6 HARMONIC
Info:   0 COSINE-BASED
Info: 4 DIHEDRAL
Info: 0 IMPROPER
Info: 0 CROSSTERM
Info: 0 VDW
Info: 21 VDW_PAIRS
Info: 0 NBTHOLE_PAIRS
Info: STRUCTURE SUMMARY:
Info: 2962 ATOMS
Info: 2961 BONDS
Info: 20 ANGLES
Info: 16 DIHEDRALS
Info: 0 IMPROPERS
Info: 0 CROSSTERMS
Info: 2993 EXCLUSIONS
Info: 13 FIXED ATOMS
Info: 2957 RIGID BONDS
Info: 8 RIGID BONDS BETWEEN FIXED ATOMS
Info: 5898 DEGREES OF FREEDOM
Info: 988 HYDROGEN GROUPS
Info: 4 ATOMS IN LARGEST HYDROGEN GROUP
Info: 988 MIGRATION GROUPS
Info: 4 ATOMS IN LARGEST MIGRATION GROUP
Info: 5 HYDROGEN GROUPS WITH ALL ATOMS FIXED
Info: TOTAL MASS = 17785.8 amu
Info: TOTAL CHARGE = 0.000200003 e
Info: MASS DENSITY = 0.674375 g/cm^3
Info: ATOM DENSITY = 0.0676322 atoms/A^3
Info: ADDED 0 IMPLICIT EXCLUSIONS
Info: NONBONDED TABLE R-SQUARED SPACING: 0.0625
Info: NONBONDED TABLE SIZE: 705 POINTS
Info: REMOVING COM VELOCITY 0.194914 -0.0231605 0.157298
TCL: Running for 100000 steps
ETITLE: TS BOND ANGLE DIHED IMPRP ELECT VDW BOUNDARY MISC KINETIC TOTAL TEMP POTENTIAL TOTAL3 TEMPAVG PRESSURE GPRESSURE VOLUME PRESSAVG GPRESSAVG
ENERGY: 0 0.0000 0.0000 0.0000 0.0000 -13666.9817 2378.0299 0.0000 0.0000 1705.0611 -9583.8907 290.9548 -11288.9518 -9583.5638 290.9548 178.9188 215.1443 43795.7242 178.9188 215.1443
ENERGY: 100000 0.0000 0.0000 0.0000 0.0000 -14459.2927 2597.7921 0.0000 0.0000 172.8054 -11688.6951 29.4878 -11861.5005 -11688.2169 30.8715 1202.1564 1267.5273 28110.1800 4.8976 4.8599
TCL: Running 100000 steps at 60 kelvin.
TCL: Setting parameter langevinTemp to 60
TCL: Running for 100000 steps
ETITLE: TS BOND ANGLE DIHED IMPRP ELECT VDW BOUNDARY MISC KINETIC TOTAL TEMP POTENTIAL TOTAL3 TEMPAVG PRESSURE GPRESSURE VOLUME PRESSAVG GPRESSAVG
ENERGY: 100000 0.0000 0.0000 0.0000 0.0000 -14459.2927 2597.7921 0.0000 0.0000 172.7179 -11688.7827 29.4729 -11861.5005 -11688.4656 29.4729 1215.4852 1267.4777 28110.1800 1215.4852 1267.4777
ENERGY: 200000 0.0000 0.0000 0.0000 0.0000 -14127.8666 2353.4550 0.0000 0.0000 347.2228 -11427.1887 59.2507 -11774.4115 -11426.0850 59.9357 -754.1835 -660.8219 28697.0113 2.8480 2.8866
TCL: Running 100000 steps at 90 kelvin.
TCL: Setting parameter langevinTemp to 90
TCL: Running for 100000 steps
ETITLE: TS BOND ANGLE DIHED IMPRP ELECT VDW BOUNDARY MISC KINETIC TOTAL TEMP POTENTIAL TOTAL3 TEMPAVG PRESSURE GPRESSURE VOLUME PRESSAVG GPRESSAVG
ENERGY: 200000 0.0000 0.0000 0.0000 0.0000 -14127.8666 2353.4550 0.0000 0.0000 347.0472 -11427.3643 59.2208 -11774.4115 -11426.6830 59.2208 -721.9126 -660.8304 28697.0113 -721.9126 -660.8304
ENERGY: 300000 0.0000 0.0000 0.0000 0.0000 -14029.7082 2400.2528 0.0000 0.0000 517.5684 -11111.8870 88.3188 -11629.4554 -11110.3390 90.1161 331.6886 381.7286 28470.1224 4.2040 4.0726
TCL: Running 100000 steps at 120 kelvin.
TCL: Setting parameter langevinTemp to 120
TCL: Running for 100000 steps
ETITLE: TS BOND ANGLE DIHED IMPRP ELECT VDW BOUNDARY MISC KINETIC TOTAL TEMP POTENTIAL TOTAL3 TEMPAVG PRESSURE GPRESSURE VOLUME PRESSAVG GPRESSAVG
ENERGY: 300000 0.0000 0.0000 0.0000 0.0000 -14029.7082 2400.2528 0.0000 0.0000 517.3101 -11112.1452 88.2748 -11629.4554 -11111.1592 88.2748 335.2949 382.0529 28470.1224 335.2949 382.0529
ENERGY: 400000 0.0000 0.0000 0.0000 0.0000 -13825.2062 2288.3270 0.0000 0.0000 699.8036 -10837.0755 119.4158 -11536.8792 -10835.0696 119.9414 -302.3139 -272.1616 28672.3908 3.7021 3.6851
TCL: Running 100000 steps at 150 kelvin.
TCL: Setting parameter langevinTemp to 150
TCL: Running for 100000 steps
ETITLE: TS BOND ANGLE DIHED IMPRP ELECT VDW BOUNDARY MISC KINETIC TOTAL TEMP POTENTIAL TOTAL3 TEMPAVG PRESSURE GPRESSURE VOLUME PRESSAVG GPRESSAVG
ENERGY: 400000 0.0000 0.0000 0.0000 0.0000 -13825.2062 2288.3270 0.0000 0.0000 699.4554 -10837.4237 119.3564 -11536.8792 -10836.1316 119.3564 -314.2300 -270.9101 28672.3908 -314.2300 -270.9101
ENERGY: 500000 0.0000 0.0000 0.0000 0.0000 -13541.1634 2159.7276 0.0000 0.0000 881.6509 -10499.7849 150.4466 -11381.4358 -10498.1709 149.8771 -1179.3186 -1129.6917 29495.5096 5.2566 5.2078
TCL: Running 100000 steps at 180 kelvin.
TCL: Setting parameter langevinTemp to 180
TCL: Running for 100000 steps
ETITLE: TS BOND ANGLE DIHED IMPRP ELECT VDW BOUNDARY MISC KINETIC TOTAL TEMP POTENTIAL TOTAL3 TEMPAVG PRESSURE GPRESSURE VOLUME PRESSAVG GPRESSAVG
ENERGY: 500000 0.0000 0.0000 0.0000 0.0000 -13541.1634 2159.7276 0.0000 0.0000 881.1821 -10500.2537 150.3666 -11381.4358 -10498.2408 150.3666 -1186.9796 -1130.2820 29495.5096 -1186.9796 -1130.2820
ENERGY: 600000 0.0000 0.0000 0.0000 0.0000 -13203.1365 2157.8304 0.0000 0.0000 1060.1025 -9985.2036 180.8979 -11045.3061 -9982.7832 180.3990 237.4336 317.2681 29100.3074 5.1956 5.2330
TCL: Running 100000 steps at 210 kelvin.
TCL: Setting parameter langevinTemp to 210
TCL: Running for 100000 steps
ETITLE: TS BOND ANGLE DIHED IMPRP ELECT VDW BOUNDARY MISC KINETIC TOTAL TEMP POTENTIAL TOTAL3 TEMPAVG PRESSURE GPRESSURE VOLUME PRESSAVG GPRESSAVG
ENERGY: 600000 0.0000 0.0000 0.0000 0.0000 -13203.1365 2157.8304 0.0000 0.0000 1059.5642 -9985.7419 180.8060 -11045.3061 -9984.1264 180.8060 268.8016 317.4239 29100.3074 268.8016 317.4239
ENERGY: 700000 0.0000 0.0000 0.0000 0.0000 -12358.2116 1817.4788 0.0000 0.0000 1240.0381 -9300.6947 211.6024 -10540.7329 -9298.1542 209.8975 -638.2207 -516.3897 29002.8020 3.9917 3.8879
TCL: Running 100000 steps at 240 kelvin.
TCL: Setting parameter langevinTemp to 240
TCL: Running for 100000 steps
ETITLE: TS BOND ANGLE DIHED IMPRP ELECT VDW BOUNDARY MISC KINETIC TOTAL TEMP POTENTIAL TOTAL3 TEMPAVG PRESSURE GPRESSURE VOLUME PRESSAVG GPRESSAVG
ENERGY: 700000 0.0000 0.0000 0.0000 0.0000 -12358.2116 1817.4788 0.0000 0.0000 1239.4096 -9301.3232 211.4952 -10540.7329 -9298.9278 211.4952 -594.0989 -516.8351 29002.8020 -594.0989 -516.8351
ENERGY: 800000 0.0000 0.0000 0.0000 0.0000 -11960.3025 1736.2769 0.0000 0.0000 1360.2679 -8863.7577 232.1187 -10224.0256 -8861.3316 239.9975 -29.7131 1.3305 29020.9702 3.6463 3.4347
TCL: Running 100000 steps at 270 kelvin.
TCL: Setting parameter langevinTemp to 270
TCL: Running for 100000 steps
ETITLE: TS BOND ANGLE DIHED IMPRP ELECT VDW BOUNDARY MISC KINETIC TOTAL TEMP POTENTIAL TOTAL3 TEMPAVG PRESSURE GPRESSURE VOLUME PRESSAVG GPRESSAVG
ENERGY: 800000 0.0000 0.0000 0.0000 0.0000 -11960.3025 1736.2769 0.0000 0.0000 1359.5667 -8864.4588 231.9990 -10224.0256 -8861.4420 231.9990 -87.0021 -0.8420 29020.9702 -87.0021 -0.8420
ENERGY: 900000 0.0000 0.0000 0.0000 0.0000 -11260.7629 1483.8886 0.0000 0.0000 1563.3613 -8213.5131 266.7749 -9776.8744 -8208.8931 269.4535 -1097.7854 -948.7282 29997.4226 4.2401 4.1569
TCL: Running 1000000 steps at 300 kelvin.
TCL: Setting parameter langevinTemp to 300
TCL: Running for 1000000 steps
ETITLE: TS BOND ANGLE DIHED IMPRP ELECT VDW BOUNDARY MISC KINETIC TOTAL TEMP POTENTIAL TOTAL3 TEMPAVG PRESSURE GPRESSURE VOLUME PRESSAVG GPRESSAVG
ENERGY: 900000 0.0000 0.0000 0.0000 0.0000 -11260.7629 1483.8886 0.0000 0.0000 1562.5063 -8214.3681 266.6290 -9776.8744 -8211.6718 266.6290 -1025.2556 -947.1180 29997.4226 -1025.2556 -947.1180
ENERGY: 1100000 0.0000 0.0000 0.0000 0.0000 -10842.7874 1467.6514 0.0000 0.0000 1781.2052 -7593.9308 303.9482 -9375.1360 -7588.1419 300.0236 115.7739 227.7869 30254.4218 3.9203 4.0681
ENERGY: 1300000 0.0000 0.0000 0.0000 0.0000 -10792.0049 1451.7083 0.0000 0.0000 1759.8631 -7580.4335 300.3063 -9340.2966 -7576.2667 300.2672 -145.4167 -5.1063 30716.9687 5.0855 4.9893
ENERGY: 1500000 0.0000 0.0000 0.0000 0.0000 -10780.5963 1440.5448 0.0000 0.0000 1774.0061 -7566.0454 302.7197 -9340.0516 -7563.5291 300.3373 -82.9258 -51.4699 30700.8558 3.8759 3.7863
ENERGY: 1700000 0.0000 0.0000 0.0000 0.0000 -10819.1155 1488.0340 0.0000 0.0000 1754.4092 -7576.6723 299.3757 -9331.0814 -7573.7438 300.0572 441.8104 519.2395 30315.0039 3.0385 3.2483
ENERGY: 1900000 0.0000 0.0000 0.0000 0.0000 -10701.5369 1408.0556 0.0000 0.0000 1764.2224 -7529.2590 301.0502 -9293.4813 -7528.2287 299.6919 -137.5609 -105.2869 30442.2667 3.0286 3.0027
TCL: Exiting due to exit command.
