Info: SIMULATION PARAMETERS:
Info: TIMESTEP               2
Info: NUMBER OF STEPS        0
Info: STEPS PER CYCLE        10
Info: PERIODIC CELL BASIS 1  39.546 0 0
Info: PERIODIC CELL BASIS 2  0 34.26 0
Info: PERIODIC CELL BASIS 3  0 0 32.993
Info: PERIODIC CELL CENTER   0 0 0
Info: WRAPPING WATERS AROUND PERIODIC BOUNDARIES ON OUTPUT.
Info: WRAPPING ALL CLUSTERS AROUND PERIODIC BOUNDARIES ON OUTPUT.
Info: FIRST LDB TIMESTEP     50
Info: LAST LDB TIMESTEP     -1
Info: HOM BACKGROUND SCALING 1
Info: PME BACKGROUND SCALING 1
Info: MIN ATOMS PER PATCH    40
Info: EMPTY PATCH LOAD       40 ATOMS
Info: INITIAL TEMPERATURE    300
Info: CENTER OF MASS MOVING INITIALLY? NO
Info: DIELECTRIC             1
Info: EXCLUDE                SCALED ONE-FOUR
Info: 1-4 ELECTROSTATICS SCALED BY 0.833333
Info: MODIFIED 1-4 VDW PARAMETERS WILL BE USED
Info: DCD FILENAME           mobley_667278_equil.dcd
Info: DCD FREQUENCY          100000
Info: DCD FIRST STEP         100000
Info: DCD FILE WILL CONTAIN UNIT CELL DATA
Info: XST FILENAME           mobley_667278_equil.xst
Info: XST FREQUENCY          100000
Info: NO VELOCITY DCD OUTPUT
Info: NO FORCE DCD OUTPUT
Info: OUTPUT FILENAME        mobley_667278_equil
Info: BINARY OUTPUT FILES WILL BE USED
Info: RESTART FILENAME       mobley_667278_equil.restart
Info: RESTART FREQUENCY      100000
Info: BINARY RESTART FILES WILL BE USED
Info: CUTOFF                 9
Info: PAIRLIST DISTANCE      11
Info: PAIRLIST SHRINK RATE   0.01
Info: PAIRLIST GROW RATE     0.01
Info: PAIRLIST TRIGGER       0.3
Info: PAIRLISTS PER CYCLE    2
Info: PAIRLISTS ENABLED
Info: MARGIN                 8
Info: HYDROGEN GROUP CUTOFF  2.5
Info: PATCH DIMENSION        21.5
Info: ENERGY OUTPUT STEPS    100000
Info: ENERGY EVALUATION STEPS    100000
Info: OUTPUT ENERGY PRECISION 4
Info: CROSSTERM ENERGY INCLUDED IN DIHEDRAL
Info: TIMING OUTPUT STEPS    1000000
Info: PRESSURE OUTPUT STEPS  100000
Info: FIXED ATOMS ACTIVE
Info: LANGEVIN DYNAMICS ACTIVE
Info: LANGEVIN TEMPERATURE   30
Info: LANGEVIN USING BBK INTEGRATOR
Info: LANGEVIN DAMPING COEFFICIENT IS 1 INVERSE PS
Info: LANGEVIN DYNAMICS APPLIED TO HYDROGENS
Info: LANGEVIN PISTON PRESSURE CONTROL ACTIVE
Info:        TARGET PRESSURE IS 1.01325 BAR
Info:     OSCILLATION PERIOD IS 50 FS
Info:             DECAY TIME IS 25 FS
Info:     PISTON TEMPERATURE IS 300 K
Info:       PRESSURE CONTROL IS GROUP-BASED
Info:    INITIAL STRAIN RATE IS 0 0 0
Info:       CELL FLUCTUATION IS ISOTROPIC
Info: PARTICLE MESH EWALD (PME) ACTIVE
Info: PME TOLERANCE               1e-06
Info: PME EWALD COEFFICIENT       0.348832
Info: PME INTERPOLATION ORDER     4
Info: PME GRID DIMENSIONS         40 36 36
Info: PME MAXIMUM GRID SPACING    1
Info: FULL ELECTROSTATIC EVALUATION FREQUENCY      2
Info: USING VERLET I (r-RESPA) MTS SCHEME.
Info: C1 SPLITTING OF LONG RANGE ELECTROSTATICS
Info: PLACING ATOMS IN PATCHES BY HYDROGEN GROUPS
Info: RIGID BONDS TO HYDROGEN : ALL
Info:         ERROR TOLERANCE : 1e-08
Info:          MAX ITERATIONS : 100
Info: RIGID WATER USING SETTLE ALGORITHM
Info: RANDOM NUMBER SEED     1744726398
Info: USE HYDROGEN BONDS?    NO
Info: Using AMBER format force field!
Info: AMBER PARM FILE        mobley_667278.prmtop
Info: COORDINATE PDB         mobley_667278.pdb
Info: Exclusions will be read from PARM file!
Info: SCNB (VDW SCALING)     2
Info: USING ARITHMETIC MEAN TO COMBINE L-J SIGMA PARAMETERS
Info: BINARY COORDINATES     mobley_667278_min.coor
Info: SUMMARY OF PARAMETERS:
Info: 7 BONDS
Info: 8 ANGLES
Info:   8 HARMONIC
Info:   0 COSINE-BASED
Info: 3 DIHEDRAL
Info: 0 IMPROPER
Info: 0 CROSSTERM
Info: 0 VDW
Info: 15 VDW_PAIRS
Info: 0 NBTHOLE_PAIRS
Info: STRUCTURE SUMMARY:
Info: 2953 ATOMS
Info: 2954 BONDS
Info: 36 ANGLES
Info: 64 DIHEDRALS
Info: 0 IMPROPERS
Info: 0 CROSSTERMS
Info: 3036 EXCLUSIONS
Info: 22 FIXED ATOMS
Info: 2934 RIGID BONDS
Info: 3 RIGID BONDS BETWEEN FIXED ATOMS
Info: 5862 DEGREES OF FREEDOM
Info: 996 HYDROGEN GROUPS
Info: 3 ATOMS IN LARGEST HYDROGEN GROUP
Info: 996 MIGRATION GROUPS
Info: 3 ATOMS IN LARGEST MIGRATION GROUP
Info: 19 HYDROGEN GROUPS WITH ALL ATOMS FIXED
Info: TOTAL MASS = 17996.9 amu
Info: TOTAL CHARGE = -0.000100005 e
Info: MASS DENSITY = 0.668568 g/cm^3
Info: ATOM DENSITY = 0.066062 atoms/A^3
Info: ADDED 0 IMPLICIT EXCLUSIONS
Info: NONBONDED TABLE R-SQUARED SPACING: 0.0625
Info: NONBONDED TABLE SIZE: 705 POINTS
Info: REMOVING COM VELOCITY 0.0074681 0.0165995 -0.180617
TCL: Running for 100000 steps
ETITLE: TS BOND ANGLE DIHED IMPRP ELECT VDW BOUNDARY MISC KINETIC TOTAL TEMP POTENTIAL TOTAL3 TEMPAVG PRESSURE GPRESSURE VOLUME PRESSAVG GPRESSAVG
ENERGY: 0 0.0000 0.0000 0.0000 0.0000 -13544.2339 2357.1184 0.0000 0.0000 1688.0989 -9499.0167 289.8294 -11187.1155 -9498.7040 289.8294 282.7982 315.4810 44700.4328 282.7982 315.4810
ENERGY: 100000 0.0000 0.0000 0.0000 0.0000 -14218.9588 2570.2628 0.0000 0.0000 168.6509 -11480.0451 28.9556 -11648.6960 -11479.6839 30.9579 1006.9966 1058.0384 29543.0917 4.0506 4.0760
TCL: Running 100000 steps at 60 kelvin.
TCL: Setting parameter langevinTemp to 60
TCL: Running for 100000 steps
ETITLE: TS BOND ANGLE DIHED IMPRP ELECT VDW BOUNDARY MISC KINETIC TOTAL TEMP POTENTIAL TOTAL3 TEMPAVG PRESSURE GPRESSURE VOLUME PRESSAVG GPRESSAVG
ENERGY: 100000 0.0000 0.0000 0.0000 0.0000 -14218.9588 2570.2628 0.0000 0.0000 168.5629 -11480.1331 28.9405 -11648.6960 -11479.8834 28.9405 1006.7889 1057.9736 29543.0917 1006.7889 1057.9736
ENERGY: 200000 0.0000 0.0000 0.0000 0.0000 -14090.8022 2447.1296 0.0000 0.0000 337.3506 -11306.3220 57.9197 -11643.6726 -11305.0481 60.0551 168.3406 206.2177 29431.3566 3.9447 4.0503
TCL: Running 100000 steps at 90 kelvin.
TCL: Setting parameter langevinTemp to 90
TCL: Running for 100000 steps
ETITLE: TS BOND ANGLE DIHED IMPRP ELECT VDW BOUNDARY MISC KINETIC TOTAL TEMP POTENTIAL TOTAL3 TEMPAVG PRESSURE GPRESSURE VOLUME PRESSAVG GPRESSAVG
ENERGY: 200000 0.0000 0.0000 0.0000 0.0000 -14090.8022 2447.1296 0.0000 0.0000 337.1746 -11306.4980 57.8894 -11643.6726 -11305.7676 57.8894 161.9653 206.8527 29431.3566 161.9653 206.8527
ENERGY: 300000 0.0000 0.0000 0.0000 0.0000 -13898.6988 2337.3920 0.0000 0.0000 508.4537 -11052.8531 87.2963 -11561.3068 -11052.4997 90.0188 -377.3273 -330.6392 29303.7990 4.8814 4.9212
TCL: Running 100000 steps at 120 kelvin.
TCL: Setting parameter langevinTemp to 120
TCL: Running for 100000 steps
ETITLE: TS BOND ANGLE DIHED IMPRP ELECT VDW BOUNDARY MISC KINETIC TOTAL TEMP POTENTIAL TOTAL3 TEMPAVG PRESSURE GPRESSURE VOLUME PRESSAVG GPRESSAVG
ENERGY: 300000 0.0000 0.0000 0.0000 0.0000 -13898.6988 2337.3920 0.0000 0.0000 508.1854 -11053.1215 87.2503 -11561.3068 -11052.0392 87.2503 -371.5825 -331.3798 29303.7990 -371.5825 -331.3798
ENERGY: 400000 0.0000 0.0000 0.0000 0.0000 -13780.5468 2334.6803 0.0000 0.0000 688.2832 -10757.5834 118.1712 -11445.8666 -10756.0231 119.8842 131.2451 187.0351 29013.0570 4.0261 3.9518
TCL: Running 100000 steps at 150 kelvin.
TCL: Setting parameter langevinTemp to 150
TCL: Running for 100000 steps
ETITLE: TS BOND ANGLE DIHED IMPRP ELECT VDW BOUNDARY MISC KINETIC TOTAL TEMP POTENTIAL TOTAL3 TEMPAVG PRESSURE GPRESSURE VOLUME PRESSAVG GPRESSAVG
ENERGY: 400000 0.0000 0.0000 0.0000 0.0000 -13780.5468 2334.6803 0.0000 0.0000 687.9435 -10757.9230 118.1129 -11445.8666 -10756.4836 118.1129 134.1639 187.3869 29013.0570 134.1639 187.3869
ENERGY: 500000 0.0000 0.0000 0.0000 0.0000 -13417.0836 2136.6758 0.0000 0.0000 875.8960 -10404.5118 150.3824 -11280.4077 -10401.4604 150.3720 -977.4355 -892.5964 29189.0239 3.2501 3.3903
TCL: Running 100000 steps at 180 kelvin.
TCL: Setting parameter langevinTemp to 180
TCL: Running for 100000 steps
ETITLE: TS BOND ANGLE DIHED IMPRP ELECT VDW BOUNDARY MISC KINETIC TOTAL TEMP POTENTIAL TOTAL3 TEMPAVG PRESSURE GPRESSURE VOLUME PRESSAVG GPRESSAVG
ENERGY: 500000 0.0000 0.0000 0.0000 0.0000 -13417.0836 2136.6758 0.0000 0.0000 875.4568 -10404.9510 150.3070 -11280.4077 -10403.0485 150.3070 -963.1319 -892.0232 29189.0239 -963.1319 -892.0232
ENERGY: 600000 0.0000 0.0000 0.0000 0.0000 -13067.5205 2120.1628 0.0000 0.0000 1051.8148 -9895.5428 180.5859 -10947.3577 -9893.7121 180.0793 499.5222 554.8369 28716.5834 3.2722 3.2018
TCL: Running 100000 steps at 210 kelvin.
TCL: Setting parameter langevinTemp to 210
TCL: Running for 100000 steps
ETITLE: TS BOND ANGLE DIHED IMPRP ELECT VDW BOUNDARY MISC KINETIC TOTAL TEMP POTENTIAL TOTAL3 TEMPAVG PRESSURE GPRESSURE VOLUME PRESSAVG GPRESSAVG
ENERGY: 600000 0.0000 0.0000 0.0000 0.0000 -13067.5205 2120.1628 0.0000 0.0000 1051.2847 -9896.0729 180.4949 -10947.3577 -9894.4718 180.4949 482.7690 554.9153 28716.5834 482.7690 554.9153
ENERGY: 700000 0.0000 0.0000 0.0000 0.0000 -12529.5486 2044.7985 0.0000 0.0000 1238.3722 -9246.3779 212.6159 -10484.7501 -9244.8935 209.9019 1443.8317 1496.0866 28739.8261 3.1218 3.1255
TCL: Running 100000 steps at 240 kelvin.
TCL: Setting parameter langevinTemp to 240
TCL: Running for 100000 steps
ETITLE: TS BOND ANGLE DIHED IMPRP ELECT VDW BOUNDARY MISC KINETIC TOTAL TEMP POTENTIAL TOTAL3 TEMPAVG PRESSURE GPRESSURE VOLUME PRESSAVG GPRESSAVG
ENERGY: 700000 0.0000 0.0000 0.0000 0.0000 -12529.5486 2044.7985 0.0000 0.0000 1237.7702 -9246.9800 212.5125 -10484.7501 -9245.0078 212.5125 1424.4877 1495.7796 28739.8261 1424.4877 1495.7796
ENERGY: 800000 0.0000 0.0000 0.0000 0.0000 -11715.1660 1648.8887 0.0000 0.0000 1386.0372 -8680.2401 237.9685 -10066.2773 -8678.9119 239.5635 -604.2522 -534.5286 29640.5057 4.6482 4.5423
TCL: Running 100000 steps at 270 kelvin.
TCL: Setting parameter langevinTemp to 270
TCL: Running for 100000 steps
ETITLE: TS BOND ANGLE DIHED IMPRP ELECT VDW BOUNDARY MISC KINETIC TOTAL TEMP POTENTIAL TOTAL3 TEMPAVG PRESSURE GPRESSURE VOLUME PRESSAVG GPRESSAVG
ENERGY: 800000 0.0000 0.0000 0.0000 0.0000 -11715.1660 1648.8887 0.0000 0.0000 1385.3362 -8680.9410 237.8481 -10066.2773 -8678.4121 237.8481 -619.1560 -535.4752 29640.5057 -619.1560 -535.4752
ENERGY: 900000 0.0000 0.0000 0.0000 0.0000 -11180.2250 1511.7100 0.0000 0.0000 1557.6238 -8110.8912 267.4282 -9668.5150 -8107.5116 270.2141 -646.2991 -601.1292 30216.8400 2.8390 2.7571
TCL: Running 1000000 steps at 300 kelvin.
TCL: Setting parameter langevinTemp to 300
TCL: Running for 1000000 steps
ETITLE: TS BOND ANGLE DIHED IMPRP ELECT VDW BOUNDARY MISC KINETIC TOTAL TEMP POTENTIAL TOTAL3 TEMPAVG PRESSURE GPRESSURE VOLUME PRESSAVG GPRESSAVG
ENERGY: 900000 0.0000 0.0000 0.0000 0.0000 -11180.2250 1511.7100 0.0000 0.0000 1556.8457 -8111.6693 267.2946 -9668.5150 -8108.9083 267.2946 -687.8737 -602.9237 30216.8400 -687.8737 -602.9237
ENERGY: 1100000 0.0000 0.0000 0.0000 0.0000 -10666.9982 1400.0947 0.0000 0.0000 1719.7504 -7547.1531 295.2636 -9266.9035 -7541.9588 300.3122 -574.9671 -495.9057 31060.4867 2.0847 1.9915
ENERGY: 1300000 0.0000 0.0000 0.0000 0.0000 -10505.0535 1352.7807 0.0000 0.0000 1746.4415 -7405.8313 299.8462 -9152.2728 -7400.5522 300.0595 -246.7647 -193.7034 30659.4935 3.4190 3.4269
ENERGY: 1500000 0.0000 0.0000 0.0000 0.0000 -10528.3115 1363.1585 0.0000 0.0000 1799.9941 -7365.1589 309.0407 -9165.1530 -7363.0834 300.3979 -198.1669 -101.0925 30568.5159 3.8178 3.8642
ENERGY: 1700000 0.0000 0.0000 0.0000 0.0000 -10626.2849 1356.3915 0.0000 0.0000 1715.8235 -7554.0700 294.5894 -9269.8934 -7550.8254 300.1894 -616.0555 -502.5593 30824.5999 1.8458 1.8150
ENERGY: 1900000 0.0000 0.0000 0.0000 0.0000 -10473.6818 1314.0900 0.0000 0.0000 1762.5680 -7397.0238 302.6150 -9159.5918 -7394.1144 300.3798 -892.1215 -778.8264 31198.5441 3.8193 3.5151
TCL: Exiting due to exit command.
