Info: SIMULATION PARAMETERS:
Info: TIMESTEP               2
Info: NUMBER OF STEPS        0
Info: STEPS PER CYCLE        10
Info: PERIODIC CELL BASIS 1  39.806 0 0
Info: PERIODIC CELL BASIS 2  0 33.314 0
Info: PERIODIC CELL BASIS 3  0 0 33.27
Info: PERIODIC CELL CENTER   0 0 0
Info: WRAPPING WATERS AROUND PERIODIC BOUNDARIES ON OUTPUT.
Info: WRAPPING ALL CLUSTERS AROUND PERIODIC BOUNDARIES ON OUTPUT.
Info: FIRST LDB TIMESTEP     50
Info: LAST LDB TIMESTEP     -1
Info: HOM BACKGROUND SCALING 1
Info: PME BACKGROUND SCALING 1
Info: MIN ATOMS PER PATCH    40
Info: EMPTY PATCH LOAD       40 ATOMS
Info: INITIAL TEMPERATURE    300
Info: CENTER OF MASS MOVING INITIALLY? NO
Info: DIELECTRIC             1
Info: EXCLUDE                SCALED ONE-FOUR
Info: 1-4 ELECTROSTATICS SCALED BY 0.833333
Info: MODIFIED 1-4 VDW PARAMETERS WILL BE USED
Info: DCD FILENAME           mobley_5456566_equil.dcd
Info: DCD FREQUENCY          100000
Info: DCD FIRST STEP         100000
Info: DCD FILE WILL CONTAIN UNIT CELL DATA
Info: XST FILENAME           mobley_5456566_equil.xst
Info: XST FREQUENCY          100000
Info: NO VELOCITY DCD OUTPUT
Info: NO FORCE DCD OUTPUT
Info: OUTPUT FILENAME        mobley_5456566_equil
Info: BINARY OUTPUT FILES WILL BE USED
Info: RESTART FILENAME       mobley_5456566_equil.restart
Info: RESTART FREQUENCY      100000
Info: BINARY RESTART FILES WILL BE USED
Info: CUTOFF                 9
Info: PAIRLIST DISTANCE      11
Info: PAIRLIST SHRINK RATE   0.01
Info: PAIRLIST GROW RATE     0.01
Info: PAIRLIST TRIGGER       0.3
Info: PAIRLISTS PER CYCLE    2
Info: PAIRLISTS ENABLED
Info: MARGIN                 8
Info: HYDROGEN GROUP CUTOFF  2.5
Info: PATCH DIMENSION        21.5
Info: ENERGY OUTPUT STEPS    100000
Info: ENERGY EVALUATION STEPS    100000
Info: OUTPUT ENERGY PRECISION 4
Info: CROSSTERM ENERGY INCLUDED IN DIHEDRAL
Info: TIMING OUTPUT STEPS    1000000
Info: PRESSURE OUTPUT STEPS  100000
Info: FIXED ATOMS ACTIVE
Info: LANGEVIN DYNAMICS ACTIVE
Info: LANGEVIN TEMPERATURE   30
Info: LANGEVIN USING BBK INTEGRATOR
Info: LANGEVIN DAMPING COEFFICIENT IS 1 INVERSE PS
Info: LANGEVIN DYNAMICS APPLIED TO HYDROGENS
Info: LANGEVIN PISTON PRESSURE CONTROL ACTIVE
Info:        TARGET PRESSURE IS 1.01325 BAR
Info:     OSCILLATION PERIOD IS 50 FS
Info:             DECAY TIME IS 25 FS
Info:     PISTON TEMPERATURE IS 300 K
Info:       PRESSURE CONTROL IS GROUP-BASED
Info:    INITIAL STRAIN RATE IS 0 0 0
Info:       CELL FLUCTUATION IS ISOTROPIC
Info: PARTICLE MESH EWALD (PME) ACTIVE
Info: PME TOLERANCE               1e-06
Info: PME EWALD COEFFICIENT       0.348832
Info: PME INTERPOLATION ORDER     4
Info: PME GRID DIMENSIONS         40 36 36
Info: PME MAXIMUM GRID SPACING    1
Info: FULL ELECTROSTATIC EVALUATION FREQUENCY      2
Info: USING VERLET I (r-RESPA) MTS SCHEME.
Info: C1 SPLITTING OF LONG RANGE ELECTROSTATICS
Info: PLACING ATOMS IN PATCHES BY HYDROGEN GROUPS
Info: RIGID BONDS TO HYDROGEN : ALL
Info:         ERROR TOLERANCE : 1e-08
Info:          MAX ITERATIONS : 100
Info: RIGID WATER USING SETTLE ALGORITHM
Info: RANDOM NUMBER SEED     1744726180
Info: USE HYDROGEN BONDS?    NO
Info: Using AMBER format force field!
Info: AMBER PARM FILE        mobley_5456566.prmtop
Info: COORDINATE PDB         mobley_5456566.pdb
Info: Exclusions will be read from PARM file!
Info: SCNB (VDW SCALING)     2
Info: USING ARITHMETIC MEAN TO COMBINE L-J SIGMA PARAMETERS
Info: BINARY COORDINATES     mobley_5456566_min.coor
Info: SUMMARY OF PARAMETERS:
Info: 6 BONDS
Info: 6 ANGLES
Info:   6 HARMONIC
Info:   0 COSINE-BASED
Info: 3 DIHEDRAL
Info: 0 IMPROPER
Info: 0 CROSSTERM
Info: 0 VDW
Info: 10 VDW_PAIRS
Info: 0 NBTHOLE_PAIRS
Info: STRUCTURE SUMMARY:
Info: 2908 ATOMS
Info: 2909 BONDS
Info: 36 ANGLES
Info: 64 DIHEDRALS
Info: 0 IMPROPERS
Info: 0 CROSSTERMS
Info: 2991 EXCLUSIONS
Info: 22 FIXED ATOMS
Info: 2886 RIGID BONDS
Info: 0 RIGID BONDS BETWEEN FIXED ATOMS
Info: 5772 DEGREES OF FREEDOM
Info: 984 HYDROGEN GROUPS
Info: 3 ATOMS IN LARGEST HYDROGEN GROUP
Info: 984 MIGRATION GROUPS
Info: 3 ATOMS IN LARGEST MIGRATION GROUP
Info: 22 HYDROGEN GROUPS WITH ALL ATOMS FIXED
Info: TOTAL MASS = 17830 amu
Info: TOTAL CHARGE = 0.000100011 e
Info: MASS DENSITY = 0.671093 g/cm^3
Info: ATOM DENSITY = 0.0659123 atoms/A^3
Info: ADDED 0 IMPLICIT EXCLUSIONS
Info: NONBONDED TABLE R-SQUARED SPACING: 0.0625
Info: NONBONDED TABLE SIZE: 705 POINTS
Info: REMOVING COM VELOCITY -0.187606 0.161252 0.0684804
TCL: Running for 100000 steps
ETITLE: TS BOND ANGLE DIHED IMPRP ELECT VDW BOUNDARY MISC KINETIC TOTAL TEMP POTENTIAL TOTAL3 TEMPAVG PRESSURE GPRESSURE VOLUME PRESSAVG GPRESSAVG
ENERGY: 0 0.0000 0.0000 0.0000 0.0000 -13447.3220 2387.5956 0.0000 0.0000 1727.9963 -9331.7302 301.3054 -11059.7265 -9331.3930 301.3054 580.6362 603.3011 44119.2500 580.6362 603.3011
ENERGY: 100000 0.0000 0.0000 0.0000 0.0000 -13837.3587 2343.0514 0.0000 0.0000 171.8792 -11322.4282 29.9700 -11494.3074 -11322.0496 30.8757 -387.8121 -336.2115 28963.7096 4.5311 4.5495
TCL: Running 100000 steps at 60 kelvin.
TCL: Setting parameter langevinTemp to 60
TCL: Running for 100000 steps
ETITLE: TS BOND ANGLE DIHED IMPRP ELECT VDW BOUNDARY MISC KINETIC TOTAL TEMP POTENTIAL TOTAL3 TEMPAVG PRESSURE GPRESSURE VOLUME PRESSAVG GPRESSAVG
ENERGY: 100000 0.0000 0.0000 0.0000 0.0000 -13837.3587 2343.0514 0.0000 0.0000 171.7912 -11322.5161 29.9547 -11494.3074 -11322.1689 29.9547 -395.2052 -336.1199 28963.7096 -395.2052 -336.1199
ENERGY: 200000 0.0000 0.0000 0.0000 0.0000 -13835.2603 2370.4446 0.0000 0.0000 345.3212 -11119.4945 60.2126 -11464.8157 -11118.1233 60.1256 39.0026 69.9410 28599.8850 3.5689 3.5295
TCL: Running 100000 steps at 90 kelvin.
TCL: Setting parameter langevinTemp to 90
TCL: Running for 100000 steps
ETITLE: TS BOND ANGLE DIHED IMPRP ELECT VDW BOUNDARY MISC KINETIC TOTAL TEMP POTENTIAL TOTAL3 TEMPAVG PRESSURE GPRESSURE VOLUME PRESSAVG GPRESSAVG
ENERGY: 200000 0.0000 0.0000 0.0000 0.0000 -13835.2603 2370.4446 0.0000 0.0000 345.1546 -11119.6611 60.1835 -11464.8157 -11119.0202 60.1835 23.0231 70.2695 28599.8850 23.0231 70.2695
ENERGY: 300000 0.0000 0.0000 0.0000 0.0000 -13597.3152 2229.7761 0.0000 0.0000 510.3214 -10857.2176 88.9832 -11367.5391 -10856.1498 90.0848 -710.0136 -680.2144 28626.4765 4.1781 4.1621
TCL: Running 100000 steps at 120 kelvin.
TCL: Setting parameter langevinTemp to 120
TCL: Running for 100000 steps
ETITLE: TS BOND ANGLE DIHED IMPRP ELECT VDW BOUNDARY MISC KINETIC TOTAL TEMP POTENTIAL TOTAL3 TEMPAVG PRESSURE GPRESSURE VOLUME PRESSAVG GPRESSAVG
ENERGY: 300000 0.0000 0.0000 0.0000 0.0000 -13597.3152 2229.7761 0.0000 0.0000 510.0620 -10857.4770 88.9379 -11367.5391 -10856.5051 88.9379 -741.2822 -680.8386 28626.4765 -741.2822 -680.8386
ENERGY: 400000 0.0000 0.0000 0.0000 0.0000 -13595.2942 2312.1920 0.0000 0.0000 679.7345 -10603.3678 118.5232 -11283.1023 -10601.2740 119.8858 686.6047 664.6144 28075.4686 3.5293 3.6473
TCL: Running 100000 steps at 150 kelvin.
TCL: Setting parameter langevinTemp to 150
TCL: Running for 100000 steps
ETITLE: TS BOND ANGLE DIHED IMPRP ELECT VDW BOUNDARY MISC KINETIC TOTAL TEMP POTENTIAL TOTAL3 TEMPAVG PRESSURE GPRESSURE VOLUME PRESSAVG GPRESSAVG
ENERGY: 400000 0.0000 0.0000 0.0000 0.0000 -13595.2942 2312.1920 0.0000 0.0000 679.3908 -10603.7115 118.4633 -11283.1023 -10602.4940 118.4633 612.6988 664.6636 28075.4686 612.6988 664.6636
ENERGY: 500000 0.0000 0.0000 0.0000 0.0000 -13234.6810 2138.5170 0.0000 0.0000 837.0936 -10259.0704 145.9614 -11096.1640 -10257.1925 149.9759 -553.8904 -453.0478 28618.7805 4.7176 4.6567
TCL: Running 100000 steps at 180 kelvin.
TCL: Setting parameter langevinTemp to 180
TCL: Running for 100000 steps
ETITLE: TS BOND ANGLE DIHED IMPRP ELECT VDW BOUNDARY MISC KINETIC TOTAL TEMP POTENTIAL TOTAL3 TEMPAVG PRESSURE GPRESSURE VOLUME PRESSAVG GPRESSAVG
ENERGY: 500000 0.0000 0.0000 0.0000 0.0000 -13234.6810 2138.5170 0.0000 0.0000 836.6608 -10259.5032 145.8860 -11096.1640 -10257.8734 145.8860 -508.8062 -453.1556 28618.7805 -508.8062 -453.1556
ENERGY: 600000 0.0000 0.0000 0.0000 0.0000 -12761.6945 1938.1048 0.0000 0.0000 1028.4505 -9795.1391 179.3277 -10823.5896 -9793.6276 180.0270 -897.7640 -812.2974 28484.1128 2.9872 3.0183
TCL: Running 100000 steps at 210 kelvin.
TCL: Setting parameter langevinTemp to 210
TCL: Running for 100000 steps
ETITLE: TS BOND ANGLE DIHED IMPRP ELECT VDW BOUNDARY MISC KINETIC TOTAL TEMP POTENTIAL TOTAL3 TEMPAVG PRESSURE GPRESSURE VOLUME PRESSAVG GPRESSAVG
ENERGY: 600000 0.0000 0.0000 0.0000 0.0000 -12761.6945 1938.1048 0.0000 0.0000 1027.9208 -9795.6688 179.2354 -10823.5896 -9793.5477 179.2354 -887.0742 -812.6827 28484.1128 -887.0742 -812.6827
ENERGY: 700000 0.0000 0.0000 0.0000 0.0000 -12153.4322 1839.9184 0.0000 0.0000 1171.1632 -9142.3505 204.2121 -10313.5137 -9141.1649 209.4263 75.3378 156.8864 28508.8604 4.8589 4.8963
TCL: Running 100000 steps at 240 kelvin.
TCL: Setting parameter langevinTemp to 240
TCL: Running for 100000 steps
ETITLE: TS BOND ANGLE DIHED IMPRP ELECT VDW BOUNDARY MISC KINETIC TOTAL TEMP POTENTIAL TOTAL3 TEMPAVG PRESSURE GPRESSURE VOLUME PRESSAVG GPRESSAVG
ENERGY: 700000 0.0000 0.0000 0.0000 0.0000 -12153.4322 1839.9184 0.0000 0.0000 1170.5620 -9142.9517 204.1073 -10313.5137 -9140.8995 204.1073 84.6634 154.6668 28508.8604 84.6634 154.6668
ENERGY: 800000 0.0000 0.0000 0.0000 0.0000 -11532.7375 1630.1526 0.0000 0.0000 1388.4591 -8514.1258 242.1013 -9902.5850 -8509.5315 239.7384 -594.5179 -466.7744 29265.7305 2.4764 2.4004
TCL: Running 100000 steps at 270 kelvin.
TCL: Setting parameter langevinTemp to 270
TCL: Running for 100000 steps
ETITLE: TS BOND ANGLE DIHED IMPRP ELECT VDW BOUNDARY MISC KINETIC TOTAL TEMP POTENTIAL TOTAL3 TEMPAVG PRESSURE GPRESSURE VOLUME PRESSAVG GPRESSAVG
ENERGY: 800000 0.0000 0.0000 0.0000 0.0000 -11532.7375 1630.1526 0.0000 0.0000 1387.7796 -8514.8053 241.9828 -9902.5850 -8511.7859 241.9828 -552.0590 -466.0014 29265.7305 -552.0590 -466.0014
ENERGY: 900000 0.0000 0.0000 0.0000 0.0000 -11067.1198 1536.2929 0.0000 0.0000 1536.7679 -7994.0590 267.9615 -9530.8269 -7991.3780 270.0812 117.2905 225.5128 29135.9244 2.7955 2.6411
TCL: Running 1000000 steps at 300 kelvin.
TCL: Setting parameter langevinTemp to 300
TCL: Running for 1000000 steps
ETITLE: TS BOND ANGLE DIHED IMPRP ELECT VDW BOUNDARY MISC KINETIC TOTAL TEMP POTENTIAL TOTAL3 TEMPAVG PRESSURE GPRESSURE VOLUME PRESSAVG GPRESSAVG
ENERGY: 900000 0.0000 0.0000 0.0000 0.0000 -11067.1198 1536.2929 0.0000 0.0000 1535.9849 -7994.8420 267.8249 -9530.8269 -7992.3926 267.8249 135.0870 226.0027 29135.9244 135.0870 226.0027
ENERGY: 1100000 0.0000 0.0000 0.0000 0.0000 -10425.3911 1346.5975 0.0000 0.0000 1741.1496 -7337.6440 303.5989 -9078.7936 -7335.1561 300.3731 -401.7542 -356.1842 30609.9817 3.8948 3.7942
ENERGY: 1300000 0.0000 0.0000 0.0000 0.0000 -10445.1473 1357.9098 0.0000 0.0000 1671.0554 -7416.1822 291.3768 -9087.2376 -7410.5688 300.4772 -610.7051 -516.8936 30570.8576 2.3736 2.4332
ENERGY: 1500000 0.0000 0.0000 0.0000 0.0000 -10430.3580 1374.4299 0.0000 0.0000 1729.3014 -7326.6267 301.5329 -9055.9281 -7324.0595 300.9433 -190.0626 -139.7124 30629.2698 2.7255 2.7794
ENERGY: 1700000 0.0000 0.0000 0.0000 0.0000 -10439.7887 1428.6094 0.0000 0.0000 1695.0327 -7316.1466 295.5576 -9011.1793 -7313.0732 300.3805 556.4944 656.4263 30206.8425 3.7666 3.7899
ENERGY: 1900000 0.0000 0.0000 0.0000 0.0000 -10401.1910 1332.4141 0.0000 0.0000 1779.1212 -7289.6558 310.2199 -9068.7769 -7284.7940 300.5272 -478.5615 -355.5420 30265.7914 3.5466 3.5978
TCL: Exiting due to exit command.
