Info: SIMULATION PARAMETERS:
Info: TIMESTEP               2
Info: NUMBER OF STEPS        0
Info: STEPS PER CYCLE        10
Info: PERIODIC CELL BASIS 1  39.456 0 0
Info: PERIODIC CELL BASIS 2  0 33.542 0
Info: PERIODIC CELL BASIS 3  0 0 33.876
Info: PERIODIC CELL CENTER   0 0 0
Info: WRAPPING WATERS AROUND PERIODIC BOUNDARIES ON OUTPUT.
Info: WRAPPING ALL CLUSTERS AROUND PERIODIC BOUNDARIES ON OUTPUT.
Info: FIRST LDB TIMESTEP     50
Info: LAST LDB TIMESTEP     -1
Info: HOM BACKGROUND SCALING 1
Info: PME BACKGROUND SCALING 1
Info: MIN ATOMS PER PATCH    40
Info: EMPTY PATCH LOAD       40 ATOMS
Info: INITIAL TEMPERATURE    300
Info: CENTER OF MASS MOVING INITIALLY? NO
Info: DIELECTRIC             1
Info: EXCLUDE                SCALED ONE-FOUR
Info: 1-4 ELECTROSTATICS SCALED BY 0.833333
Info: MODIFIED 1-4 VDW PARAMETERS WILL BE USED
Info: DCD FILENAME           mobley_5561855_equil.dcd
Info: DCD FREQUENCY          100000
Info: DCD FIRST STEP         100000
Info: DCD FILE WILL CONTAIN UNIT CELL DATA
Info: XST FILENAME           mobley_5561855_equil.xst
Info: XST FREQUENCY          100000
Info: NO VELOCITY DCD OUTPUT
Info: NO FORCE DCD OUTPUT
Info: OUTPUT FILENAME        mobley_5561855_equil
Info: BINARY OUTPUT FILES WILL BE USED
Info: RESTART FILENAME       mobley_5561855_equil.restart
Info: RESTART FREQUENCY      100000
Info: BINARY RESTART FILES WILL BE USED
Info: CUTOFF                 9
Info: PAIRLIST DISTANCE      11
Info: PAIRLIST SHRINK RATE   0.01
Info: PAIRLIST GROW RATE     0.01
Info: PAIRLIST TRIGGER       0.3
Info: PAIRLISTS PER CYCLE    2
Info: PAIRLISTS ENABLED
Info: MARGIN                 8
Info: HYDROGEN GROUP CUTOFF  2.5
Info: PATCH DIMENSION        21.5
Info: ENERGY OUTPUT STEPS    100000
Info: ENERGY EVALUATION STEPS    100000
Info: OUTPUT ENERGY PRECISION 4
Info: CROSSTERM ENERGY INCLUDED IN DIHEDRAL
Info: TIMING OUTPUT STEPS    1000000
Info: PRESSURE OUTPUT STEPS  100000
Info: FIXED ATOMS ACTIVE
Info: LANGEVIN DYNAMICS ACTIVE
Info: LANGEVIN TEMPERATURE   30
Info: LANGEVIN USING BBK INTEGRATOR
Info: LANGEVIN DAMPING COEFFICIENT IS 1 INVERSE PS
Info: LANGEVIN DYNAMICS APPLIED TO HYDROGENS
Info: LANGEVIN PISTON PRESSURE CONTROL ACTIVE
Info:        TARGET PRESSURE IS 1.01325 BAR
Info:     OSCILLATION PERIOD IS 50 FS
Info:             DECAY TIME IS 25 FS
Info:     PISTON TEMPERATURE IS 300 K
Info:       PRESSURE CONTROL IS GROUP-BASED
Info:    INITIAL STRAIN RATE IS 0 0 0
Info:       CELL FLUCTUATION IS ISOTROPIC
Info: PARTICLE MESH EWALD (PME) ACTIVE
Info: PME TOLERANCE               1e-06
Info: PME EWALD COEFFICIENT       0.348832
Info: PME INTERPOLATION ORDER     4
Info: PME GRID DIMENSIONS         40 36 36
Info: PME MAXIMUM GRID SPACING    1
Info: FULL ELECTROSTATIC EVALUATION FREQUENCY      2
Info: USING VERLET I (r-RESPA) MTS SCHEME.
Info: C1 SPLITTING OF LONG RANGE ELECTROSTATICS
Info: PLACING ATOMS IN PATCHES BY HYDROGEN GROUPS
Info: RIGID BONDS TO HYDROGEN : ALL
Info:         ERROR TOLERANCE : 1e-08
Info:          MAX ITERATIONS : 100
Info: RIGID WATER USING SETTLE ALGORITHM
Info: RANDOM NUMBER SEED     1744726275
Info: USE HYDROGEN BONDS?    NO
Info: Using AMBER format force field!
Info: AMBER PARM FILE        mobley_5561855.prmtop
Info: COORDINATE PDB         mobley_5561855.pdb
Info: Exclusions will be read from PARM file!
Info: SCNB (VDW SCALING)     2
Info: USING ARITHMETIC MEAN TO COMBINE L-J SIGMA PARAMETERS
Info: BINARY COORDINATES     mobley_5561855_min.coor
Info: SUMMARY OF PARAMETERS:
Info: 7 BONDS
Info: 7 ANGLES
Info:   7 HARMONIC
Info:   0 COSINE-BASED
Info: 3 DIHEDRAL
Info: 0 IMPROPER
Info: 0 CROSSTERM
Info: 0 VDW
Info: 15 VDW_PAIRS
Info: 0 NBTHOLE_PAIRS
Info: STRUCTURE SUMMARY:
Info: 2935 ATOMS
Info: 2936 BONDS
Info: 36 ANGLES
Info: 64 DIHEDRALS
Info: 0 IMPROPERS
Info: 0 CROSSTERMS
Info: 3018 EXCLUSIONS
Info: 22 FIXED ATOMS
Info: 2918 RIGID BONDS
Info: 5 RIGID BONDS BETWEEN FIXED ATOMS
Info: 5826 DEGREES OF FREEDOM
Info: 988 HYDROGEN GROUPS
Info: 3 ATOMS IN LARGEST HYDROGEN GROUP
Info: 988 MIGRATION GROUPS
Info: 3 ATOMS IN LARGEST MIGRATION GROUP
Info: 17 HYDROGEN GROUPS WITH ALL ATOMS FIXED
Info: TOTAL MASS = 17819.9 amu
Info: TOTAL CHARGE = 1.11759e-08 e
Info: MASS DENSITY = 0.660042 g/cm^3
Info: ATOM DENSITY = 0.0654657 atoms/A^3
Info: ADDED 0 IMPLICIT EXCLUSIONS
Info: NONBONDED TABLE R-SQUARED SPACING: 0.0625
Info: NONBONDED TABLE SIZE: 705 POINTS
Info: REMOVING COM VELOCITY -0.0465112 -0.0790863 -0.130383
TCL: Running for 100000 steps
ETITLE: TS BOND ANGLE DIHED IMPRP ELECT VDW BOUNDARY MISC KINETIC TOTAL TEMP POTENTIAL TOTAL3 TEMPAVG PRESSURE GPRESSURE VOLUME PRESSAVG GPRESSAVG
ENERGY: 0 0.0000 0.0000 0.0000 0.0000 -13622.3239 2428.0193 0.0000 0.0000 1694.0641 -9500.2404 292.6508 -11194.3046 -9499.9116 292.6508 509.2620 536.4382 44832.6215 509.2620 536.4382
ENERGY: 100000 0.0000 0.0000 0.0000 0.0000 -14156.4018 2513.3446 0.0000 0.0000 172.2430 -11470.8142 29.7551 -11643.0572 -11470.1213 30.8693 554.9676 603.9706 29018.0430 2.6113 2.5866
TCL: Running 100000 steps at 60 kelvin.
TCL: Setting parameter langevinTemp to 60
TCL: Running for 100000 steps
ETITLE: TS BOND ANGLE DIHED IMPRP ELECT VDW BOUNDARY MISC KINETIC TOTAL TEMP POTENTIAL TOTAL3 TEMPAVG PRESSURE GPRESSURE VOLUME PRESSAVG GPRESSAVG
ENERGY: 100000 0.0000 0.0000 0.0000 0.0000 -14156.4018 2513.3446 0.0000 0.0000 172.1559 -11470.9013 29.7401 -11643.0572 -11470.6221 29.7401 543.9553 604.2176 29018.0430 543.9553 604.2176
ENERGY: 200000 0.0000 0.0000 0.0000 0.0000 -13927.8492 2323.9757 0.0000 0.0000 353.1403 -11250.7332 61.0052 -11603.8735 -11249.8641 60.0693 -615.0527 -573.3843 28450.2585 3.4281 3.5170
TCL: Running 100000 steps at 90 kelvin.
TCL: Setting parameter langevinTemp to 90
TCL: Running for 100000 steps
ETITLE: TS BOND ANGLE DIHED IMPRP ELECT VDW BOUNDARY MISC KINETIC TOTAL TEMP POTENTIAL TOTAL3 TEMPAVG PRESSURE GPRESSURE VOLUME PRESSAVG GPRESSAVG
ENERGY: 200000 0.0000 0.0000 0.0000 0.0000 -13927.8492 2323.9757 0.0000 0.0000 352.9647 -11250.9088 60.9749 -11603.8735 -11250.1903 60.9749 -637.0287 -573.6580 28450.2585 -637.0287 -573.6580
ENERGY: 300000 0.0000 0.0000 0.0000 0.0000 -13864.7666 2355.9116 0.0000 0.0000 516.9393 -10991.9158 89.3016 -11508.8551 -10991.3464 90.1539 -33.1296 30.4588 28597.0753 5.7564 5.7446
TCL: Running 100000 steps at 120 kelvin.
TCL: Setting parameter langevinTemp to 120
TCL: Running for 100000 steps
ETITLE: TS BOND ANGLE DIHED IMPRP ELECT VDW BOUNDARY MISC KINETIC TOTAL TEMP POTENTIAL TOTAL3 TEMPAVG PRESSURE GPRESSURE VOLUME PRESSAVG GPRESSAVG
ENERGY: 300000 0.0000 0.0000 0.0000 0.0000 -13864.7666 2355.9116 0.0000 0.0000 516.6723 -10992.1828 89.2555 -11508.8551 -10990.9988 89.2555 -31.0308 29.1807 28597.0753 -31.0308 29.1807
ENERGY: 400000 0.0000 0.0000 0.0000 0.0000 -13612.0919 2217.0972 0.0000 0.0000 688.0362 -10706.9585 118.8588 -11394.9947 -10705.6589 119.9521 -1003.6698 -911.6276 29064.5470 3.6675 3.6453
TCL: Running 100000 steps at 150 kelvin.
TCL: Setting parameter langevinTemp to 150
TCL: Running for 100000 steps
ETITLE: TS BOND ANGLE DIHED IMPRP ELECT VDW BOUNDARY MISC KINETIC TOTAL TEMP POTENTIAL TOTAL3 TEMPAVG PRESSURE GPRESSURE VOLUME PRESSAVG GPRESSAVG
ENERGY: 400000 0.0000 0.0000 0.0000 0.0000 -13612.0919 2217.0972 0.0000 0.0000 687.6772 -10707.3175 118.7967 -11394.9947 -10705.4233 118.7967 -959.8834 -913.0509 29064.5470 -959.8834 -913.0509
ENERGY: 500000 0.0000 0.0000 0.0000 0.0000 -13368.2168 2149.1006 0.0000 0.0000 855.5525 -10363.5637 147.7973 -11219.1162 -10362.6795 150.2290 -703.3399 -729.8171 28967.2747 4.8555 5.0055
TCL: Running 100000 steps at 180 kelvin.
TCL: Setting parameter langevinTemp to 180
TCL: Running for 100000 steps
ETITLE: TS BOND ANGLE DIHED IMPRP ELECT VDW BOUNDARY MISC KINETIC TOTAL TEMP POTENTIAL TOTAL3 TEMPAVG PRESSURE GPRESSURE VOLUME PRESSAVG GPRESSAVG
ENERGY: 500000 0.0000 0.0000 0.0000 0.0000 -13368.2168 2149.1006 0.0000 0.0000 855.1033 -10364.0129 147.7197 -11219.1162 -10361.9793 147.7197 -783.2783 -731.1742 28967.2747 -783.2783 -731.1742
ENERGY: 600000 0.0000 0.0000 0.0000 0.0000 -13162.7815 2222.7732 0.0000 0.0000 1033.2426 -9906.7658 178.4934 -10940.0083 -9904.7349 180.0191 1054.0263 1109.2550 28742.8203 3.8665 3.7308
TCL: Running 100000 steps at 210 kelvin.
TCL: Setting parameter langevinTemp to 210
TCL: Running for 100000 steps
ETITLE: TS BOND ANGLE DIHED IMPRP ELECT VDW BOUNDARY MISC KINETIC TOTAL TEMP POTENTIAL TOTAL3 TEMPAVG PRESSURE GPRESSURE VOLUME PRESSAVG GPRESSAVG
ENERGY: 600000 0.0000 0.0000 0.0000 0.0000 -13162.7815 2222.7732 0.0000 0.0000 1032.7086 -9907.2997 178.4012 -10940.0083 -9905.4589 178.4012 1046.2342 1108.6123 28742.8203 1046.2342 1108.6123
ENERGY: 700000 0.0000 0.0000 0.0000 0.0000 -12282.0136 1801.2161 0.0000 0.0000 1221.8862 -9258.9112 211.0817 -10480.7974 -9257.3139 209.7470 -685.1334 -547.4203 28805.0871 3.2351 3.4092
TCL: Running 100000 steps at 240 kelvin.
TCL: Setting parameter langevinTemp to 240
TCL: Running for 100000 steps
ETITLE: TS BOND ANGLE DIHED IMPRP ELECT VDW BOUNDARY MISC KINETIC TOTAL TEMP POTENTIAL TOTAL3 TEMPAVG PRESSURE GPRESSURE VOLUME PRESSAVG GPRESSAVG
ENERGY: 700000 0.0000 0.0000 0.0000 0.0000 -12282.0136 1801.2161 0.0000 0.0000 1221.2870 -9259.5105 210.9782 -10480.7974 -9257.2099 210.9782 -631.3397 -547.6953 28805.0871 -631.3397 -547.6953
ENERGY: 800000 0.0000 0.0000 0.0000 0.0000 -11513.5819 1537.0346 0.0000 0.0000 1342.3696 -8634.1778 231.8953 -9976.5473 -8631.3144 239.9667 -1174.9263 -1092.7415 29142.6251 3.6859 3.6695
TCL: Running 100000 steps at 270 kelvin.
TCL: Setting parameter langevinTemp to 270
TCL: Running for 100000 steps
ETITLE: TS BOND ANGLE DIHED IMPRP ELECT VDW BOUNDARY MISC KINETIC TOTAL TEMP POTENTIAL TOTAL3 TEMPAVG PRESSURE GPRESSURE VOLUME PRESSAVG GPRESSAVG
ENERGY: 800000 0.0000 0.0000 0.0000 0.0000 -11513.5819 1537.0346 0.0000 0.0000 1341.7114 -8634.8360 231.7816 -9976.5473 -8632.1218 231.7816 -1182.0099 -1093.5247 29142.6251 -1182.0099 -1093.5247
ENERGY: 900000 0.0000 0.0000 0.0000 0.0000 -10963.0489 1403.4877 0.0000 0.0000 1559.1709 -8000.3903 269.3479 -9559.5612 -7997.0545 269.6440 -1214.8081 -1155.8666 30189.7959 3.6429 3.6267
TCL: Running 1000000 steps at 300 kelvin.
TCL: Setting parameter langevinTemp to 300
TCL: Running for 1000000 steps
ETITLE: TS BOND ANGLE DIHED IMPRP ELECT VDW BOUNDARY MISC KINETIC TOTAL TEMP POTENTIAL TOTAL3 TEMPAVG PRESSURE GPRESSURE VOLUME PRESSAVG GPRESSAVG
ENERGY: 900000 0.0000 0.0000 0.0000 0.0000 -10963.0489 1403.4877 0.0000 0.0000 1558.3896 -8001.1715 269.2130 -9559.5612 -7999.2663 269.2130 -1244.3547 -1156.0010 30189.7959 -1244.3547 -1156.0010
ENERGY: 1100000 0.0000 0.0000 0.0000 0.0000 -10461.4445 1355.5190 0.0000 0.0000 1746.1864 -7359.7392 301.6550 -9105.9255 -7357.2701 300.5653 60.7133 106.4083 29926.7221 4.3780 4.2977
ENERGY: 1300000 0.0000 0.0000 0.0000 0.0000 -10550.1235 1422.0506 0.0000 0.0000 1754.6867 -7373.3863 303.1234 -9128.0729 -7369.7452 300.4361 212.3016 380.8842 30156.8309 2.8512 2.9540
ENERGY: 1500000 0.0000 0.0000 0.0000 0.0000 -10475.5624 1315.5686 0.0000 0.0000 1689.9459 -7470.0479 291.9394 -9159.9938 -7464.8932 300.5764 -742.7911 -680.9628 30606.4048 3.1509 3.1088
ENERGY: 1700000 0.0000 0.0000 0.0000 0.0000 -10651.4568 1447.8999 0.0000 0.0000 1714.7084 -7488.8485 296.2171 -9203.5569 -7484.5095 299.6407 21.1725 116.6627 30549.8534 2.3036 2.1731
ENERGY: 1900000 0.0000 0.0000 0.0000 0.0000 -10614.8387 1414.5645 0.0000 0.0000 1764.8641 -7435.4101 304.8816 -9200.2742 -7432.4025 300.0970 134.6939 189.5675 30209.9060 1.8822 2.0221
TCL: Exiting due to exit command.
