Info: SIMULATION PARAMETERS:
Info: TIMESTEP               2
Info: NUMBER OF STEPS        0
Info: STEPS PER CYCLE        10
Info: PERIODIC CELL BASIS 1  37.435 0 0
Info: PERIODIC CELL BASIS 2  0 34.26 0
Info: PERIODIC CELL BASIS 3  0 0 34.229
Info: PERIODIC CELL CENTER   0 0 0
Info: WRAPPING WATERS AROUND PERIODIC BOUNDARIES ON OUTPUT.
Info: WRAPPING ALL CLUSTERS AROUND PERIODIC BOUNDARIES ON OUTPUT.
Info: FIRST LDB TIMESTEP     50
Info: LAST LDB TIMESTEP     -1
Info: HOM BACKGROUND SCALING 1
Info: PME BACKGROUND SCALING 1
Info: MIN ATOMS PER PATCH    40
Info: EMPTY PATCH LOAD       40 ATOMS
Info: INITIAL TEMPERATURE    300
Info: CENTER OF MASS MOVING INITIALLY? NO
Info: DIELECTRIC             1
Info: EXCLUDE                SCALED ONE-FOUR
Info: 1-4 ELECTROSTATICS SCALED BY 0.833333
Info: MODIFIED 1-4 VDW PARAMETERS WILL BE USED
Info: DCD FILENAME           mobley_9246215_equil.dcd
Info: DCD FREQUENCY          100000
Info: DCD FIRST STEP         100000
Info: DCD FILE WILL CONTAIN UNIT CELL DATA
Info: XST FILENAME           mobley_9246215_equil.xst
Info: XST FREQUENCY          100000
Info: NO VELOCITY DCD OUTPUT
Info: NO FORCE DCD OUTPUT
Info: OUTPUT FILENAME        mobley_9246215_equil
Info: BINARY OUTPUT FILES WILL BE USED
Info: RESTART FILENAME       mobley_9246215_equil.restart
Info: RESTART FREQUENCY      100000
Info: BINARY RESTART FILES WILL BE USED
Info: CUTOFF                 9
Info: PAIRLIST DISTANCE      11
Info: PAIRLIST SHRINK RATE   0.01
Info: PAIRLIST GROW RATE     0.01
Info: PAIRLIST TRIGGER       0.3
Info: PAIRLISTS PER CYCLE    2
Info: PAIRLISTS ENABLED
Info: MARGIN                 8
Info: HYDROGEN GROUP CUTOFF  2.5
Info: PATCH DIMENSION        21.5
Info: ENERGY OUTPUT STEPS    100000
Info: ENERGY EVALUATION STEPS    100000
Info: OUTPUT ENERGY PRECISION 4
Info: CROSSTERM ENERGY INCLUDED IN DIHEDRAL
Info: TIMING OUTPUT STEPS    1000000
Info: PRESSURE OUTPUT STEPS  100000
Info: FIXED ATOMS ACTIVE
Info: LANGEVIN DYNAMICS ACTIVE
Info: LANGEVIN TEMPERATURE   30
Info: LANGEVIN USING BBK INTEGRATOR
Info: LANGEVIN DAMPING COEFFICIENT IS 1 INVERSE PS
Info: LANGEVIN DYNAMICS APPLIED TO HYDROGENS
Info: LANGEVIN PISTON PRESSURE CONTROL ACTIVE
Info:        TARGET PRESSURE IS 1.01325 BAR
Info:     OSCILLATION PERIOD IS 50 FS
Info:             DECAY TIME IS 25 FS
Info:     PISTON TEMPERATURE IS 300 K
Info:       PRESSURE CONTROL IS GROUP-BASED
Info:    INITIAL STRAIN RATE IS 0 0 0
Info:       CELL FLUCTUATION IS ISOTROPIC
Info: PARTICLE MESH EWALD (PME) ACTIVE
Info: PME TOLERANCE               1e-06
Info: PME EWALD COEFFICIENT       0.348832
Info: PME INTERPOLATION ORDER     4
Info: PME GRID DIMENSIONS         40 36 36
Info: PME MAXIMUM GRID SPACING    1
Info: FULL ELECTROSTATIC EVALUATION FREQUENCY      2
Info: USING VERLET I (r-RESPA) MTS SCHEME.
Info: C1 SPLITTING OF LONG RANGE ELECTROSTATICS
Info: PLACING ATOMS IN PATCHES BY HYDROGEN GROUPS
Info: RIGID BONDS TO HYDROGEN : ALL
Info:         ERROR TOLERANCE : 1e-08
Info:          MAX ITERATIONS : 100
Info: RIGID WATER USING SETTLE ALGORITHM
Info: RANDOM NUMBER SEED     1744764529
Info: USE HYDROGEN BONDS?    NO
Info: Using AMBER format force field!
Info: AMBER PARM FILE        mobley_9246215.prmtop
Info: COORDINATE PDB         mobley_9246215.pdb
Info: Exclusions will be read from PARM file!
Info: SCNB (VDW SCALING)     2
Info: USING ARITHMETIC MEAN TO COMBINE L-J SIGMA PARAMETERS
Info: BINARY COORDINATES     mobley_9246215_min.coor
Info: SUMMARY OF PARAMETERS:
Info: 6 BONDS
Info: 7 ANGLES
Info: 5 DIHEDRAL
Info: 0 IMPROPER
Info: 0 CROSSTERM
Info: 0 VDW
Info: 21 VDW_PAIRS
Info: 0 NBTHOLE_PAIRS
Info: STRUCTURE SUMMARY:
Info: 2983 ATOMS
Info: 2982 BONDS
Info: 18 ANGLES
Info: 32 DIHEDRALS
Info: 0 IMPROPERS
Info: 0 CROSSTERMS
Info: 3020 EXCLUSIONS
Info: 13 FIXED ATOMS
Info: 2978 RIGID BONDS
Info: 8 RIGID BONDS BETWEEN FIXED ATOMS
Info: 5940 DEGREES OF FREEDOM
Info: 995 HYDROGEN GROUPS
Info: 3 ATOMS IN LARGEST HYDROGEN GROUP
Info: 995 MIGRATION GROUPS
Info: 3 ATOMS IN LARGEST MIGRATION GROUP
Info: 5 HYDROGEN GROUPS WITH ALL ATOMS FIXED
Info: TOTAL MASS = 17904 amu
Info: TOTAL CHARGE = 0.000200043 e
Info: MASS DENSITY = 0.67725 g/cm^3
Info: ATOM DENSITY = 0.0679507 atoms/A^3
Info: ADDED 0 IMPLICIT EXCLUSIONS
Info: NONBONDED TABLE R-SQUARED SPACING: 0.0625
Info: NONBONDED TABLE SIZE: 705 POINTS
Info: REMOVING COM VELOCITY 0.100293 -0.0601404 0.0709117
TCL: Running for 100000 steps
ETITLE: TS BOND ANGLE DIHED IMPRP ELECT VDW BOUNDARY MISC KINETIC TOTAL TEMP POTENTIAL TOTAL3 TEMPAVG PRESSURE GPRESSURE VOLUME PRESSAVG GPRESSAVG
ENERGY: 0 0.0000 0.0000 0.0000 0.0000 -13762.3291 2373.5274 0.0000 0.0000 1759.2849 -9629.5168 298.0850 -11388.8016 -9629.1567 298.0850 -66.7850 -28.3064 43899.4832 -66.7850 -28.3064
ENERGY: 100000 0.0000 0.0000 0.0000 0.0000 -14407.7748 2554.7464 0.0000 0.0000 178.0249 -11675.0034 30.1637 -11853.0284 -11674.5916 30.9202 211.7717 269.3526 30040.4691 3.3653 3.3711
TCL: Running 100000 steps at 60 kelvin.
TCL: Setting parameter langevinTemp to 60
TCL: Running for 100000 steps
ETITLE: TS BOND ANGLE DIHED IMPRP ELECT VDW BOUNDARY MISC KINETIC TOTAL TEMP POTENTIAL TOTAL3 TEMPAVG PRESSURE GPRESSURE VOLUME PRESSAVG GPRESSAVG
ENERGY: 100000 0.0000 0.0000 0.0000 0.0000 -14407.7748 2554.7464 0.0000 0.0000 177.9322 -11675.0962 30.1480 -11853.0284 -11674.7144 30.1480 221.0067 269.6403 30040.4691 221.0067 269.6403
ENERGY: 200000 0.0000 0.0000 0.0000 0.0000 -14388.7819 2603.7246 0.0000 0.0000 346.5718 -11438.4855 58.7215 -11785.0573 -11437.4041 59.9712 1014.8943 1052.2289 29488.5450 4.9407 4.8670
TCL: Running 100000 steps at 90 kelvin.
TCL: Setting parameter langevinTemp to 90
TCL: Running for 100000 steps
ETITLE: TS BOND ANGLE DIHED IMPRP ELECT VDW BOUNDARY MISC KINETIC TOTAL TEMP POTENTIAL TOTAL3 TEMPAVG PRESSURE GPRESSURE VOLUME PRESSAVG GPRESSAVG
ENERGY: 200000 0.0000 0.0000 0.0000 0.0000 -14388.7819 2603.7246 0.0000 0.0000 346.3968 -11438.6605 58.6918 -11785.0573 -11438.0111 58.6918 1009.6704 1052.6363 29488.5450 1009.6704 1052.6363
ENERGY: 300000 0.0000 0.0000 0.0000 0.0000 -14148.3893 2445.7875 0.0000 0.0000 528.5951 -11174.0067 89.5627 -11702.6018 -11172.2839 89.9128 257.8503 281.0474 29026.7591 4.6081 4.5353
TCL: Running 100000 steps at 120 kelvin.
TCL: Setting parameter langevinTemp to 120
TCL: Running for 100000 steps
ETITLE: TS BOND ANGLE DIHED IMPRP ELECT VDW BOUNDARY MISC KINETIC TOTAL TEMP POTENTIAL TOTAL3 TEMPAVG PRESSURE GPRESSURE VOLUME PRESSAVG GPRESSAVG
ENERGY: 300000 0.0000 0.0000 0.0000 0.0000 -14148.3893 2445.7875 0.0000 0.0000 528.3393 -11174.2625 89.5193 -11702.6018 -11173.2905 89.5193 231.4809 281.5057 29026.7591 231.4809 281.5057
ENERGY: 400000 0.0000 0.0000 0.0000 0.0000 -13971.4659 2398.6488 0.0000 0.0000 711.5923 -10861.2248 120.5689 -11572.8171 -10859.8042 119.9019 248.2475 339.5897 29159.4568 4.2523 4.1268
TCL: Running 100000 steps at 150 kelvin.
TCL: Setting parameter langevinTemp to 150
TCL: Running for 100000 steps
ETITLE: TS BOND ANGLE DIHED IMPRP ELECT VDW BOUNDARY MISC KINETIC TOTAL TEMP POTENTIAL TOTAL3 TEMPAVG PRESSURE GPRESSURE VOLUME PRESSAVG GPRESSAVG
ENERGY: 400000 0.0000 0.0000 0.0000 0.0000 -13971.4659 2398.6488 0.0000 0.0000 711.2384 -10861.5787 120.5089 -11572.8171 -10860.0754 120.5089 295.3619 339.2487 29159.4568 295.3619 339.2487
ENERGY: 500000 0.0000 0.0000 0.0000 0.0000 -13795.7531 2377.4946 0.0000 0.0000 884.7258 -10533.5327 149.9038 -11418.2585 -10531.6134 149.9748 766.2896 783.4423 29149.5649 2.1137 2.2846
TCL: Running 100000 steps at 180 kelvin.
TCL: Setting parameter langevinTemp to 180
TCL: Running for 100000 steps
ETITLE: TS BOND ANGLE DIHED IMPRP ELECT VDW BOUNDARY MISC KINETIC TOTAL TEMP POTENTIAL TOTAL3 TEMPAVG PRESSURE GPRESSURE VOLUME PRESSAVG GPRESSAVG
ENERGY: 500000 0.0000 0.0000 0.0000 0.0000 -13795.7531 2377.4946 0.0000 0.0000 884.2777 -10533.9808 149.8279 -11418.2585 -10532.4488 149.8279 733.4638 783.5856 29149.5649 733.4638 783.5856
ENERGY: 600000 0.0000 0.0000 0.0000 0.0000 -13202.2192 2037.2894 0.0000 0.0000 1078.2717 -10086.6581 182.6973 -11164.9298 -10083.2503 179.5271 -1078.2008 -1041.1537 29429.7148 2.8508 2.7929
TCL: Running 100000 steps at 210 kelvin.
TCL: Setting parameter langevinTemp to 210
TCL: Running for 100000 steps
ETITLE: TS BOND ANGLE DIHED IMPRP ELECT VDW BOUNDARY MISC KINETIC TOTAL TEMP POTENTIAL TOTAL3 TEMPAVG PRESSURE GPRESSURE VOLUME PRESSAVG GPRESSAVG
ENERGY: 600000 0.0000 0.0000 0.0000 0.0000 -13202.2192 2037.2894 0.0000 0.0000 1077.7404 -10087.1893 182.6073 -11164.9298 -10085.1205 182.6073 -1106.0713 -1040.9833 29429.7148 -1106.0713 -1040.9833
ENERGY: 700000 0.0000 0.0000 0.0000 0.0000 -12605.7408 1941.5998 0.0000 0.0000 1185.8445 -9478.2965 200.9239 -10664.1410 -9473.7949 210.2273 251.3628 285.5324 28884.6652 4.2632 4.5110
TCL: Running 100000 steps at 240 kelvin.
TCL: Setting parameter langevinTemp to 240
TCL: Running for 100000 steps
ETITLE: TS BOND ANGLE DIHED IMPRP ELECT VDW BOUNDARY MISC KINETIC TOTAL TEMP POTENTIAL TOTAL3 TEMPAVG PRESSURE GPRESSURE VOLUME PRESSAVG GPRESSAVG
ENERGY: 700000 0.0000 0.0000 0.0000 0.0000 -12605.7408 1941.5998 0.0000 0.0000 1185.2258 -9478.9151 200.8191 -10664.1410 -9476.5634 200.8191 219.8738 287.2938 28884.6652 219.8738 287.2938
ENERGY: 800000 0.0000 0.0000 0.0000 0.0000 -12047.0160 1845.0253 0.0000 0.0000 1461.0382 -8740.9525 247.5515 -10201.9907 -8738.6918 239.8204 1031.0690 1066.4169 29131.1459 2.9109 2.8159
TCL: Running 100000 steps at 270 kelvin.
TCL: Setting parameter langevinTemp to 270
TCL: Running for 100000 steps
ETITLE: TS BOND ANGLE DIHED IMPRP ELECT VDW BOUNDARY MISC KINETIC TOTAL TEMP POTENTIAL TOTAL3 TEMPAVG PRESSURE GPRESSURE VOLUME PRESSAVG GPRESSAVG
ENERGY: 800000 0.0000 0.0000 0.0000 0.0000 -12047.0160 1845.0253 0.0000 0.0000 1460.3391 -8741.6516 247.4330 -10201.9907 -8739.2258 247.4330 970.1775 1065.0587 29131.1459 970.1775 1065.0587
ENERGY: 900000 0.0000 0.0000 0.0000 0.0000 -11256.0655 1444.2257 0.0000 0.0000 1598.6242 -8213.2157 270.8634 -9811.8398 -8212.0002 270.1327 -1213.7496 -1109.8487 30052.5035 3.5177 3.6222
TCL: Running 1000000 steps at 300 kelvin.
TCL: Setting parameter langevinTemp to 300
TCL: Running for 1000000 steps
ETITLE: TS BOND ANGLE DIHED IMPRP ELECT VDW BOUNDARY MISC KINETIC TOTAL TEMP POTENTIAL TOTAL3 TEMPAVG PRESSURE GPRESSURE VOLUME PRESSAVG GPRESSAVG
ENERGY: 900000 0.0000 0.0000 0.0000 0.0000 -11256.0655 1444.2257 0.0000 0.0000 1597.8348 -8214.0050 270.7296 -9811.8398 -8211.3331 270.7296 -1193.8805 -1109.8216 30052.5035 -1193.8805 -1109.8216
ENERGY: 1100000 0.0000 0.0000 0.0000 0.0000 -10872.9810 1466.8740 0.0000 0.0000 1761.9266 -7644.1803 298.5326 -9406.1069 -7639.1917 300.0879 -37.0025 85.2100 30590.2807 2.7837 2.7865
ENERGY: 1300000 0.0000 0.0000 0.0000 0.0000 -10872.2465 1501.2688 0.0000 0.0000 1781.9256 -7589.0521 301.9211 -9370.9777 -7586.8772 300.9412 460.3699 522.4117 30434.2729 3.5517 3.5045
ENERGY: 1500000 0.0000 0.0000 0.0000 0.0000 -10767.2658 1401.3292 0.0000 0.0000 1774.9172 -7591.0194 300.7337 -9365.9366 -7587.9296 300.3649 -517.6282 -444.2112 31163.4448 3.5296 3.4681
ENERGY: 1700000 0.0000 0.0000 0.0000 0.0000 -10817.4709 1396.6460 0.0000 0.0000 1781.1580 -7639.6669 301.7911 -9420.8249 -7632.5272 300.3190 -755.8127 -663.5470 31080.2785 3.2908 3.2645
ENERGY: 1900000 0.0000 0.0000 0.0000 0.0000 -10943.5635 1568.9495 0.0000 0.0000 1784.7942 -7589.8198 302.4072 -9374.6141 -7588.2681 300.1094 800.0713 883.4066 30732.3628 2.9837 3.0391
TCL: Exiting due to exit command.
