Info: SIMULATION PARAMETERS:
Info: TIMESTEP               2
Info: NUMBER OF STEPS        0
Info: STEPS PER CYCLE        10
Info: PERIODIC CELL BASIS 1  37.133 0 0
Info: PERIODIC CELL BASIS 2  0 34.26 0
Info: PERIODIC CELL BASIS 3  0 0 34.229
Info: PERIODIC CELL CENTER   0 0 0
Info: WRAPPING WATERS AROUND PERIODIC BOUNDARIES ON OUTPUT.
Info: WRAPPING ALL CLUSTERS AROUND PERIODIC BOUNDARIES ON OUTPUT.
Info: FIRST LDB TIMESTEP     50
Info: LAST LDB TIMESTEP     -1
Info: HOM BACKGROUND SCALING 1
Info: PME BACKGROUND SCALING 1
Info: MIN ATOMS PER PATCH    40
Info: EMPTY PATCH LOAD       40 ATOMS
Info: INITIAL TEMPERATURE    300
Info: CENTER OF MASS MOVING INITIALLY? NO
Info: DIELECTRIC             1
Info: EXCLUDE                SCALED ONE-FOUR
Info: 1-4 ELECTROSTATICS SCALED BY 0.833333
Info: MODIFIED 1-4 VDW PARAMETERS WILL BE USED
Info: DCD FILENAME           mobley_8573194_equil.dcd
Info: DCD FREQUENCY          100000
Info: DCD FIRST STEP         100000
Info: DCD FILE WILL CONTAIN UNIT CELL DATA
Info: XST FILENAME           mobley_8573194_equil.xst
Info: XST FREQUENCY          100000
Info: NO VELOCITY DCD OUTPUT
Info: NO FORCE DCD OUTPUT
Info: OUTPUT FILENAME        mobley_8573194_equil
Info: BINARY OUTPUT FILES WILL BE USED
Info: RESTART FILENAME       mobley_8573194_equil.restart
Info: RESTART FREQUENCY      100000
Info: BINARY RESTART FILES WILL BE USED
Info: CUTOFF                 9
Info: PAIRLIST DISTANCE      11
Info: PAIRLIST SHRINK RATE   0.01
Info: PAIRLIST GROW RATE     0.01
Info: PAIRLIST TRIGGER       0.3
Info: PAIRLISTS PER CYCLE    2
Info: PAIRLISTS ENABLED
Info: MARGIN                 8
Info: HYDROGEN GROUP CUTOFF  2.5
Info: PATCH DIMENSION        21.5
Info: ENERGY OUTPUT STEPS    100000
Info: ENERGY EVALUATION STEPS    100000
Info: OUTPUT ENERGY PRECISION 4
Info: CROSSTERM ENERGY INCLUDED IN DIHEDRAL
Info: TIMING OUTPUT STEPS    1000000
Info: PRESSURE OUTPUT STEPS  100000
Info: FIXED ATOMS ACTIVE
Info: LANGEVIN DYNAMICS ACTIVE
Info: LANGEVIN TEMPERATURE   30
Info: LANGEVIN USING BBK INTEGRATOR
Info: LANGEVIN DAMPING COEFFICIENT IS 1 INVERSE PS
Info: LANGEVIN DYNAMICS APPLIED TO HYDROGENS
Info: LANGEVIN PISTON PRESSURE CONTROL ACTIVE
Info:        TARGET PRESSURE IS 1.01325 BAR
Info:     OSCILLATION PERIOD IS 50 FS
Info:             DECAY TIME IS 25 FS
Info:     PISTON TEMPERATURE IS 300 K
Info:       PRESSURE CONTROL IS GROUP-BASED
Info:    INITIAL STRAIN RATE IS 0 0 0
Info:       CELL FLUCTUATION IS ISOTROPIC
Info: PARTICLE MESH EWALD (PME) ACTIVE
Info: PME TOLERANCE               1e-06
Info: PME EWALD COEFFICIENT       0.348832
Info: PME INTERPOLATION ORDER     4
Info: PME GRID DIMENSIONS         40 36 36
Info: PME MAXIMUM GRID SPACING    1
Info: FULL ELECTROSTATIC EVALUATION FREQUENCY      2
Info: USING VERLET I (r-RESPA) MTS SCHEME.
Info: C1 SPLITTING OF LONG RANGE ELECTROSTATICS
Info: PLACING ATOMS IN PATCHES BY HYDROGEN GROUPS
Info: RIGID BONDS TO HYDROGEN : ALL
Info:         ERROR TOLERANCE : 1e-08
Info:          MAX ITERATIONS : 100
Info: RIGID WATER USING SETTLE ALGORITHM
Info: RANDOM NUMBER SEED     1744764477
Info: USE HYDROGEN BONDS?    NO
Info: Using AMBER format force field!
Info: AMBER PARM FILE        mobley_8573194.prmtop
Info: COORDINATE PDB         mobley_8573194.pdb
Info: Exclusions will be read from PARM file!
Info: SCNB (VDW SCALING)     2
Info: USING ARITHMETIC MEAN TO COMBINE L-J SIGMA PARAMETERS
Info: BINARY COORDINATES     mobley_8573194_min.coor
Info: SUMMARY OF PARAMETERS:
Info: 7 BONDS
Info: 8 ANGLES
Info: 8 DIHEDRAL
Info: 0 IMPROPER
Info: 0 CROSSTERM
Info: 0 VDW
Info: 28 VDW_PAIRS
Info: 0 NBTHOLE_PAIRS
Info: STRUCTURE SUMMARY:
Info: 2962 ATOMS
Info: 2961 BONDS
Info: 21 ANGLES
Info: 29 DIHEDRALS
Info: 0 IMPROPERS
Info: 0 CROSSTERMS
Info: 3006 EXCLUSIONS
Info: 13 FIXED ATOMS
Info: 2957 RIGID BONDS
Info: 8 RIGID BONDS BETWEEN FIXED ATOMS
Info: 5898 DEGREES OF FREEDOM
Info: 988 HYDROGEN GROUPS
Info: 4 ATOMS IN LARGEST HYDROGEN GROUP
Info: 988 MIGRATION GROUPS
Info: 4 ATOMS IN LARGEST MIGRATION GROUP
Info: 5 HYDROGEN GROUPS WITH ALL ATOMS FIXED
Info: TOTAL MASS = 17781.8 amu
Info: TOTAL CHARGE = 9.99738e-05 e
Info: MASS DENSITY = 0.678101 g/cm^3
Info: ATOM DENSITY = 0.0680211 atoms/A^3
Info: ADDED 0 IMPLICIT EXCLUSIONS
Info: NONBONDED TABLE R-SQUARED SPACING: 0.0625
Info: NONBONDED TABLE SIZE: 705 POINTS
Info: REMOVING COM VELOCITY 0.0413014 0.157129 -0.0194121
TCL: Running for 100000 steps
ETITLE: TS BOND ANGLE DIHED IMPRP ELECT VDW BOUNDARY MISC KINETIC TOTAL TEMP POTENTIAL TOTAL3 TEMPAVG PRESSURE GPRESSURE VOLUME PRESSAVG GPRESSAVG
ENERGY: 0 0.0000 0.0000 0.0000 0.0000 -13684.3122 2355.0333 0.0000 0.0000 1733.3243 -9595.9546 295.7777 -11329.2789 -9595.6078 295.7777 132.6907 167.3680 43545.3322 132.6907 167.3680
ENERGY: 100000 0.0000 0.0000 0.0000 0.0000 -14299.1560 2445.3967 0.0000 0.0000 178.1392 -11675.6200 30.3980 -11853.7593 -11675.2685 30.9043 -403.4690 -355.5277 29164.0505 2.8438 2.8573
TCL: Running 100000 steps at 60 kelvin.
TCL: Setting parameter langevinTemp to 60
TCL: Running for 100000 steps
ETITLE: TS BOND ANGLE DIHED IMPRP ELECT VDW BOUNDARY MISC KINETIC TOTAL TEMP POTENTIAL TOTAL3 TEMPAVG PRESSURE GPRESSURE VOLUME PRESSAVG GPRESSAVG
ENERGY: 100000 0.0000 0.0000 0.0000 0.0000 -14299.1560 2445.3967 0.0000 0.0000 178.0508 -11675.7085 30.3829 -11853.7593 -11675.2965 30.3829 -399.0739 -355.6684 29164.0505 -399.0739 -355.6684
ENERGY: 200000 0.0000 0.0000 0.0000 0.0000 -14307.0529 2540.4784 0.0000 0.0000 349.5390 -11417.0355 59.6460 -11766.5745 -11416.1792 59.9189 735.5268 788.6863 28959.7877 3.7672 3.7553
TCL: Running 100000 steps at 90 kelvin.
TCL: Setting parameter langevinTemp to 90
TCL: Running for 100000 steps
ETITLE: TS BOND ANGLE DIHED IMPRP ELECT VDW BOUNDARY MISC KINETIC TOTAL TEMP POTENTIAL TOTAL3 TEMPAVG PRESSURE GPRESSURE VOLUME PRESSAVG GPRESSAVG
ENERGY: 200000 0.0000 0.0000 0.0000 0.0000 -14307.0529 2540.4784 0.0000 0.0000 349.3735 -11417.2011 59.6177 -11766.5745 -11416.4813 59.6177 729.0122 788.6032 28959.7877 729.0122 788.6032
ENERGY: 300000 0.0000 0.0000 0.0000 0.0000 -13844.5990 2197.9950 0.0000 0.0000 524.6505 -11121.9535 89.5273 -11646.6040 -11121.1207 89.7568 -1522.7620 -1465.5824 29067.1585 3.7417 3.7989
TCL: Running 100000 steps at 120 kelvin.
TCL: Setting parameter langevinTemp to 120
TCL: Running for 100000 steps
ETITLE: TS BOND ANGLE DIHED IMPRP ELECT VDW BOUNDARY MISC KINETIC TOTAL TEMP POTENTIAL TOTAL3 TEMPAVG PRESSURE GPRESSURE VOLUME PRESSAVG GPRESSAVG
ENERGY: 300000 0.0000 0.0000 0.0000 0.0000 -13844.5990 2197.9950 0.0000 0.0000 524.3878 -11122.2162 89.4825 -11646.6040 -11121.2805 89.4825 -1519.0034 -1466.1977 29067.1585 -1519.0034 -1466.1977
ENERGY: 400000 0.0000 0.0000 0.0000 0.0000 -13835.1713 2276.0272 0.0000 0.0000 697.6269 -10861.5172 119.0444 -11559.1442 -10859.7239 120.0886 -372.3406 -329.9654 28637.5649 3.1510 3.0901
TCL: Running 100000 steps at 150 kelvin.
TCL: Setting parameter langevinTemp to 150
TCL: Running for 100000 steps
ETITLE: TS BOND ANGLE DIHED IMPRP ELECT VDW BOUNDARY MISC KINETIC TOTAL TEMP POTENTIAL TOTAL3 TEMPAVG PRESSURE GPRESSURE VOLUME PRESSAVG GPRESSAVG
ENERGY: 400000 0.0000 0.0000 0.0000 0.0000 -13835.1713 2276.0272 0.0000 0.0000 697.2755 -10861.8687 118.9844 -11559.1442 -10860.4678 118.9844 -374.1514 -329.7004 28637.5649 -374.1514 -329.7004
ENERGY: 500000 0.0000 0.0000 0.0000 0.0000 -13620.3072 2249.8024 0.0000 0.0000 862.0857 -10508.4191 147.1079 -11370.5048 -10505.9222 150.1802 -275.4902 -223.8559 29152.0932 4.6389 4.6542
TCL: Running 100000 steps at 180 kelvin.
TCL: Setting parameter langevinTemp to 180
TCL: Running for 100000 steps
ETITLE: TS BOND ANGLE DIHED IMPRP ELECT VDW BOUNDARY MISC KINETIC TOTAL TEMP POTENTIAL TOTAL3 TEMPAVG PRESSURE GPRESSURE VOLUME PRESSAVG GPRESSAVG
ENERGY: 500000 0.0000 0.0000 0.0000 0.0000 -13620.3072 2249.8024 0.0000 0.0000 861.6377 -10508.8671 147.0315 -11370.5048 -10507.1555 147.0315 -274.0097 -223.7546 29152.0932 -274.0097 -223.7546
ENERGY: 600000 0.0000 0.0000 0.0000 0.0000 -13128.8484 2051.8444 0.0000 0.0000 1087.0592 -9989.9447 185.4978 -11077.0040 -9985.8656 179.9138 -729.7074 -685.6194 29277.9269 3.7238 3.5973
TCL: Running 100000 steps at 210 kelvin.
TCL: Setting parameter langevinTemp to 210
TCL: Running for 100000 steps
ETITLE: TS BOND ANGLE DIHED IMPRP ELECT VDW BOUNDARY MISC KINETIC TOTAL TEMP POTENTIAL TOTAL3 TEMPAVG PRESSURE GPRESSURE VOLUME PRESSAVG GPRESSAVG
ENERGY: 600000 0.0000 0.0000 0.0000 0.0000 -13128.8484 2051.8444 0.0000 0.0000 1086.5377 -9990.4663 185.4088 -11077.0040 -9988.6471 185.4088 -740.7439 -684.0506 29277.9269 -740.7439 -684.0506
ENERGY: 700000 0.0000 0.0000 0.0000 0.0000 -12503.7788 1920.9222 0.0000 0.0000 1217.9885 -9364.8680 207.8398 -10582.8565 -9362.0267 210.1573 245.4492 324.0978 28730.4953 4.0891 4.1478
TCL: Running 100000 steps at 240 kelvin.
TCL: Setting parameter langevinTemp to 240
TCL: Running for 100000 steps
ETITLE: TS BOND ANGLE DIHED IMPRP ELECT VDW BOUNDARY MISC KINETIC TOTAL TEMP POTENTIAL TOTAL3 TEMPAVG PRESSURE GPRESSURE VOLUME PRESSAVG GPRESSAVG
ENERGY: 700000 0.0000 0.0000 0.0000 0.0000 -12503.7788 1920.9222 0.0000 0.0000 1217.3908 -9365.4657 207.7378 -10582.8565 -9363.5281 207.7378 233.8400 324.3550 28730.4953 233.8400 324.3550
ENERGY: 800000 0.0000 0.0000 0.0000 0.0000 -11789.8698 1700.8118 0.0000 0.0000 1415.2810 -8673.7770 241.5062 -10089.0581 -8670.1373 239.6787 93.0571 173.8407 29225.4720 4.0644 3.8088
TCL: Running 100000 steps at 270 kelvin.
TCL: Setting parameter langevinTemp to 270
TCL: Running for 100000 steps
ETITLE: TS BOND ANGLE DIHED IMPRP ELECT VDW BOUNDARY MISC KINETIC TOTAL TEMP POTENTIAL TOTAL3 TEMPAVG PRESSURE GPRESSURE VOLUME PRESSAVG GPRESSAVG
ENERGY: 800000 0.0000 0.0000 0.0000 0.0000 -11789.8698 1700.8118 0.0000 0.0000 1414.5428 -8674.5153 241.3802 -10089.0581 -8672.7868 241.3802 85.3206 174.7852 29225.4720 85.3206 174.7852
ENERGY: 900000 0.0000 0.0000 0.0000 0.0000 -11332.3167 1592.2842 0.0000 0.0000 1547.6854 -8192.3470 264.0999 -9740.0324 -8189.4940 269.7397 301.7088 406.3086 29445.6692 3.1901 3.0655
TCL: Running 1000000 steps at 300 kelvin.
TCL: Setting parameter langevinTemp to 300
TCL: Running for 1000000 steps
ETITLE: TS BOND ANGLE DIHED IMPRP ELECT VDW BOUNDARY MISC KINETIC TOTAL TEMP POTENTIAL TOTAL3 TEMPAVG PRESSURE GPRESSURE VOLUME PRESSAVG GPRESSAVG
ENERGY: 900000 0.0000 0.0000 0.0000 0.0000 -11332.3167 1592.2842 0.0000 0.0000 1546.8368 -8193.1956 263.9551 -9740.0324 -8191.0051 263.9551 321.7151 406.9227 29445.6692 321.7151 406.9227
ENERGY: 1100000 0.0000 0.0000 0.0000 0.0000 -10865.8898 1495.5931 0.0000 0.0000 1768.4794 -7601.8173 301.7766 -9370.2967 -7597.5883 300.1952 250.0412 316.0447 30451.2365 2.5843 2.5664
ENERGY: 1300000 0.0000 0.0000 0.0000 0.0000 -10840.1312 1485.6442 0.0000 0.0000 1798.4076 -7556.0794 306.8836 -9354.4870 -7552.5584 300.2202 303.3679 440.6907 30347.6077 5.1920 5.1587
ENERGY: 1500000 0.0000 0.0000 0.0000 0.0000 -10598.8434 1294.9152 0.0000 0.0000 1775.1802 -7528.7480 302.9201 -9303.9282 -7524.9159 300.5502 -1178.3681 -1105.4278 30979.0391 3.5722 3.4250
ENERGY: 1700000 0.0000 0.0000 0.0000 0.0000 -10828.1325 1433.9016 0.0000 0.0000 1757.1131 -7637.1178 299.8371 -9394.2309 -7633.9754 299.7658 -55.1109 -58.0534 30471.2506 4.3570 4.3682
ENERGY: 1900000 0.0000 0.0000 0.0000 0.0000 -10765.7197 1418.0677 0.0000 0.0000 1815.7537 -7531.8983 309.8436 -9347.6520 -7530.3256 300.5123 -199.0044 -66.6924 30638.6856 2.5971 2.5451
TCL: Exiting due to exit command.
