Info: SIMULATION PARAMETERS:
Info: TIMESTEP               2
Info: NUMBER OF STEPS        0
Info: STEPS PER CYCLE        10
Info: PERIODIC CELL BASIS 1  37.435 0 0
Info: PERIODIC CELL BASIS 2  0 35.132 0
Info: PERIODIC CELL BASIS 3  0 0 33.088
Info: PERIODIC CELL CENTER   0 0 0
Info: WRAPPING WATERS AROUND PERIODIC BOUNDARIES ON OUTPUT.
Info: WRAPPING ALL CLUSTERS AROUND PERIODIC BOUNDARIES ON OUTPUT.
Info: FIRST LDB TIMESTEP     50
Info: LAST LDB TIMESTEP     -1
Info: HOM BACKGROUND SCALING 1
Info: PME BACKGROUND SCALING 1
Info: MIN ATOMS PER PATCH    40
Info: EMPTY PATCH LOAD       40 ATOMS
Info: INITIAL TEMPERATURE    300
Info: CENTER OF MASS MOVING INITIALLY? NO
Info: DIELECTRIC             1
Info: EXCLUDE                SCALED ONE-FOUR
Info: 1-4 ELECTROSTATICS SCALED BY 0.833333
Info: MODIFIED 1-4 VDW PARAMETERS WILL BE USED
Info: DCD FILENAME           mobley_5220185_equil.dcd
Info: DCD FREQUENCY          100000
Info: DCD FIRST STEP         100000
Info: DCD FILE WILL CONTAIN UNIT CELL DATA
Info: XST FILENAME           mobley_5220185_equil.xst
Info: XST FREQUENCY          100000
Info: NO VELOCITY DCD OUTPUT
Info: NO FORCE DCD OUTPUT
Info: OUTPUT FILENAME        mobley_5220185_equil
Info: BINARY OUTPUT FILES WILL BE USED
Info: RESTART FILENAME       mobley_5220185_equil.restart
Info: RESTART FREQUENCY      100000
Info: BINARY RESTART FILES WILL BE USED
Info: CUTOFF                 9
Info: PAIRLIST DISTANCE      11
Info: PAIRLIST SHRINK RATE   0.01
Info: PAIRLIST GROW RATE     0.01
Info: PAIRLIST TRIGGER       0.3
Info: PAIRLISTS PER CYCLE    2
Info: PAIRLISTS ENABLED
Info: MARGIN                 8
Info: HYDROGEN GROUP CUTOFF  2.5
Info: PATCH DIMENSION        21.5
Info: ENERGY OUTPUT STEPS    100000
Info: ENERGY EVALUATION STEPS    100000
Info: OUTPUT ENERGY PRECISION 4
Info: CROSSTERM ENERGY INCLUDED IN DIHEDRAL
Info: TIMING OUTPUT STEPS    1000000
Info: PRESSURE OUTPUT STEPS  100000
Info: FIXED ATOMS ACTIVE
Info: LANGEVIN DYNAMICS ACTIVE
Info: LANGEVIN TEMPERATURE   30
Info: LANGEVIN USING BBK INTEGRATOR
Info: LANGEVIN DAMPING COEFFICIENT IS 1 INVERSE PS
Info: LANGEVIN DYNAMICS APPLIED TO HYDROGENS
Info: LANGEVIN PISTON PRESSURE CONTROL ACTIVE
Info:        TARGET PRESSURE IS 1.01325 BAR
Info:     OSCILLATION PERIOD IS 50 FS
Info:             DECAY TIME IS 25 FS
Info:     PISTON TEMPERATURE IS 300 K
Info:       PRESSURE CONTROL IS GROUP-BASED
Info:    INITIAL STRAIN RATE IS 0 0 0
Info:       CELL FLUCTUATION IS ISOTROPIC
Info: PARTICLE MESH EWALD (PME) ACTIVE
Info: PME TOLERANCE               1e-06
Info: PME EWALD COEFFICIENT       0.348832
Info: PME INTERPOLATION ORDER     4
Info: PME GRID DIMENSIONS         40 36 36
Info: PME MAXIMUM GRID SPACING    1
Info: FULL ELECTROSTATIC EVALUATION FREQUENCY      2
Info: USING VERLET I (r-RESPA) MTS SCHEME.
Info: C1 SPLITTING OF LONG RANGE ELECTROSTATICS
Info: PLACING ATOMS IN PATCHES BY HYDROGEN GROUPS
Info: RIGID BONDS TO HYDROGEN : ALL
Info:         ERROR TOLERANCE : 1e-08
Info:          MAX ITERATIONS : 100
Info: RIGID WATER USING SETTLE ALGORITHM
Info: RANDOM NUMBER SEED     1744721263
Info: USE HYDROGEN BONDS?    NO
Info: Using AMBER format force field!
Info: AMBER PARM FILE        mobley_5220185.prmtop
Info: COORDINATE PDB         mobley_5220185.pdb
Info: Exclusions will be read from PARM file!
Info: SCNB (VDW SCALING)     2
Info: USING ARITHMETIC MEAN TO COMBINE L-J SIGMA PARAMETERS
Info: BINARY COORDINATES     mobley_5220185_min.coor
Info: SUMMARY OF PARAMETERS:
Info: 8 BONDS
Info: 10 ANGLES
Info: 6 DIHEDRAL
Info: 0 IMPROPER
Info: 0 CROSSTERM
Info: 0 VDW
Info: 28 VDW_PAIRS
Info: 0 NBTHOLE_PAIRS
Info: STRUCTURE SUMMARY:
Info: 2935 ATOMS
Info: 2935 BONDS
Info: 26 ANGLES
Info: 35 DIHEDRALS
Info: 0 IMPROPERS
Info: 0 CROSSTERMS
Info: 2989 EXCLUSIONS
Info: 16 FIXED ATOMS
Info: 2927 RIGID BONDS
Info: 8 RIGID BONDS BETWEEN FIXED ATOMS
Info: 5838 DEGREES OF FREEDOM
Info: 981 HYDROGEN GROUPS
Info: 4 ATOMS IN LARGEST HYDROGEN GROUP
Info: 981 MIGRATION GROUPS
Info: 4 ATOMS IN LARGEST MIGRATION GROUP
Info: 8 HYDROGEN GROUPS WITH ALL ATOMS FIXED
Info: TOTAL MASS = 17637.7 amu
Info: TOTAL CHARGE = 0.000100043 e
Info: MASS DENSITY = 0.673055 g/cm^3
Info: ATOM DENSITY = 0.0674461 atoms/A^3
Info: ADDED 0 IMPLICIT EXCLUSIONS
Info: NONBONDED TABLE R-SQUARED SPACING: 0.0625
Info: NONBONDED TABLE SIZE: 705 POINTS
Info: REMOVING COM VELOCITY -0.0848576 -0.0213242 0.270916
TCL: Running for 100000 steps
ETITLE: TS BOND ANGLE DIHED IMPRP ELECT VDW BOUNDARY MISC KINETIC TOTAL TEMP POTENTIAL TOTAL3 TEMPAVG PRESSURE GPRESSURE VOLUME PRESSAVG GPRESSAVG
ENERGY: 0 0.0000 0.0000 0.0000 0.0000 -13620.0080 2351.7627 0.0000 0.0000 1825.4154 -9442.8299 314.6937 -11268.2453 -9442.4433 314.6937 328.6738 364.1889 43516.2265 328.6738 364.1889
ENERGY: 100000 0.0000 0.0000 0.0000 0.0000 -14221.3139 2437.6888 0.0000 0.0000 177.7540 -11605.8712 30.6440 -11783.6251 -11605.8715 31.0589 -154.0192 -58.6938 28233.4618 5.0302 5.0578
TCL: Running 100000 steps at 60 kelvin.
TCL: Setting parameter langevinTemp to 60
TCL: Running for 100000 steps
ETITLE: TS BOND ANGLE DIHED IMPRP ELECT VDW BOUNDARY MISC KINETIC TOTAL TEMP POTENTIAL TOTAL3 TEMPAVG PRESSURE GPRESSURE VOLUME PRESSAVG GPRESSAVG
ENERGY: 100000 0.0000 0.0000 0.0000 0.0000 -14221.3139 2437.6888 0.0000 0.0000 177.6670 -11605.9581 30.6290 -11783.6251 -11605.5770 30.6290 -121.5333 -59.0911 28233.4618 -121.5333 -59.0911
ENERGY: 200000 0.0000 0.0000 0.0000 0.0000 -14091.0535 2415.9734 0.0000 0.0000 336.6500 -11338.4301 58.0370 -11675.0801 -11337.3801 59.8554 182.6887 269.5238 28138.4709 2.5118 2.5431
TCL: Running 100000 steps at 90 kelvin.
TCL: Setting parameter langevinTemp to 90
TCL: Running for 100000 steps
ETITLE: TS BOND ANGLE DIHED IMPRP ELECT VDW BOUNDARY MISC KINETIC TOTAL TEMP POTENTIAL TOTAL3 TEMPAVG PRESSURE GPRESSURE VOLUME PRESSAVG GPRESSAVG
ENERGY: 200000 0.0000 0.0000 0.0000 0.0000 -14091.0535 2415.9734 0.0000 0.0000 336.4745 -11338.6056 58.0067 -11675.0801 -11338.0540 58.0067 203.6811 269.9807 28138.4709 203.6811 269.9807
ENERGY: 300000 0.0000 0.0000 0.0000 0.0000 -14035.4897 2424.7582 0.0000 0.0000 533.7682 -11076.9634 92.0193 -11610.7315 -11075.2744 89.9710 542.1660 618.1873 28110.4294 5.6644 5.6929
TCL: Running 100000 steps at 120 kelvin.
TCL: Setting parameter langevinTemp to 120
TCL: Running for 100000 steps
ETITLE: TS BOND ANGLE DIHED IMPRP ELECT VDW BOUNDARY MISC KINETIC TOTAL TEMP POTENTIAL TOTAL3 TEMPAVG PRESSURE GPRESSURE VOLUME PRESSAVG GPRESSAVG
ENERGY: 300000 0.0000 0.0000 0.0000 0.0000 -14035.4897 2424.7582 0.0000 0.0000 533.5063 -11077.2253 91.9742 -11610.7315 -11076.0738 91.9742 539.6359 618.2906 28110.4294 539.6359 618.2906
ENERGY: 400000 0.0000 0.0000 0.0000 0.0000 -13853.9459 2379.4852 0.0000 0.0000 692.9175 -10781.5432 119.4560 -11474.4607 -10779.6228 120.0342 455.0814 543.4711 28522.8050 4.9503 4.8587
TCL: Running 100000 steps at 150 kelvin.
TCL: Setting parameter langevinTemp to 150
TCL: Running for 100000 steps
ETITLE: TS BOND ANGLE DIHED IMPRP ELECT VDW BOUNDARY MISC KINETIC TOTAL TEMP POTENTIAL TOTAL3 TEMPAVG PRESSURE GPRESSURE VOLUME PRESSAVG GPRESSAVG
ENERGY: 400000 0.0000 0.0000 0.0000 0.0000 -13853.9459 2379.4852 0.0000 0.0000 692.5752 -10781.8855 119.3970 -11474.4607 -10780.5786 119.3970 497.9633 543.6145 28522.8050 497.9633 543.6145
ENERGY: 500000 0.0000 0.0000 0.0000 0.0000 -13595.8092 2306.1076 0.0000 0.0000 851.4572 -10438.2444 146.7875 -11289.7016 -10435.8073 149.8647 596.4331 614.1175 28671.0207 3.1522 3.1378
TCL: Running 100000 steps at 180 kelvin.
TCL: Setting parameter langevinTemp to 180
TCL: Running for 100000 steps
ETITLE: TS BOND ANGLE DIHED IMPRP ELECT VDW BOUNDARY MISC KINETIC TOTAL TEMP POTENTIAL TOTAL3 TEMPAVG PRESSURE GPRESSURE VOLUME PRESSAVG GPRESSAVG
ENERGY: 500000 0.0000 0.0000 0.0000 0.0000 -13595.8092 2306.1076 0.0000 0.0000 851.0209 -10438.6807 146.7123 -11289.7016 -10437.2727 146.7123 570.7157 614.3706 28671.0207 570.7157 614.3706
ENERGY: 600000 0.0000 0.0000 0.0000 0.0000 -13162.9560 2150.6961 0.0000 0.0000 1056.7688 -9955.4911 182.1823 -11012.2599 -9953.0106 179.9441 277.0526 320.9594 28760.9262 2.5682 2.6643
TCL: Running 100000 steps at 210 kelvin.
TCL: Setting parameter langevinTemp to 210
TCL: Running for 100000 steps
ETITLE: TS BOND ANGLE DIHED IMPRP ELECT VDW BOUNDARY MISC KINETIC TOTAL TEMP POTENTIAL TOTAL3 TEMPAVG PRESSURE GPRESSURE VOLUME PRESSAVG GPRESSAVG
ENERGY: 600000 0.0000 0.0000 0.0000 0.0000 -13162.9560 2150.6961 0.0000 0.0000 1056.2460 -9956.0139 182.0922 -11012.2599 -9954.4312 182.0922 253.2608 320.2592 28760.9262 253.2608 320.2592
ENERGY: 700000 0.0000 0.0000 0.0000 0.0000 -12470.4934 1919.1030 0.0000 0.0000 1203.7058 -9347.6846 207.5136 -10551.3904 -9344.3701 210.2726 396.9571 421.8500 28392.5362 4.2761 4.0845
TCL: Running 100000 steps at 240 kelvin.
TCL: Setting parameter langevinTemp to 240
TCL: Running for 100000 steps
ETITLE: TS BOND ANGLE DIHED IMPRP ELECT VDW BOUNDARY MISC KINETIC TOTAL TEMP POTENTIAL TOTAL3 TEMPAVG PRESSURE GPRESSURE VOLUME PRESSAVG GPRESSAVG
ENERGY: 700000 0.0000 0.0000 0.0000 0.0000 -12470.4934 1919.1030 0.0000 0.0000 1203.0941 -9348.2963 207.4082 -10551.3904 -9346.6256 207.4082 365.6260 423.2211 28392.5362 365.6260 423.2211
ENERGY: 800000 0.0000 0.0000 0.0000 0.0000 -11776.7067 1700.8473 0.0000 0.0000 1391.6149 -8684.2445 239.9083 -10075.8594 -8683.0557 239.4264 -6.3506 120.4957 28792.9189 2.4176 2.6039
TCL: Running 100000 steps at 270 kelvin.
TCL: Setting parameter langevinTemp to 270
TCL: Running for 100000 steps
ETITLE: TS BOND ANGLE DIHED IMPRP ELECT VDW BOUNDARY MISC KINETIC TOTAL TEMP POTENTIAL TOTAL3 TEMPAVG PRESSURE GPRESSURE VOLUME PRESSAVG GPRESSAVG
ENERGY: 800000 0.0000 0.0000 0.0000 0.0000 -11776.7067 1700.8473 0.0000 0.0000 1390.9166 -8684.9428 239.7880 -10075.8594 -8682.1019 239.7880 40.7517 118.0376 28792.9189 40.7517 118.0376
ENERGY: 900000 0.0000 0.0000 0.0000 0.0000 -11314.7133 1590.5989 0.0000 0.0000 1574.0518 -8150.0626 271.3597 -9724.1144 -8147.2116 270.2741 12.8548 144.1121 29745.8436 4.0937 4.1982
TCL: Running 1000000 steps at 300 kelvin.
TCL: Setting parameter langevinTemp to 300
TCL: Running for 1000000 steps
ETITLE: TS BOND ANGLE DIHED IMPRP ELECT VDW BOUNDARY MISC KINETIC TOTAL TEMP POTENTIAL TOTAL3 TEMPAVG PRESSURE GPRESSURE VOLUME PRESSAVG GPRESSAVG
ENERGY: 900000 0.0000 0.0000 0.0000 0.0000 -11314.7133 1590.5989 0.0000 0.0000 1573.2717 -8150.8427 271.2252 -9724.1144 -8148.7056 271.2252 50.9544 144.4460 29745.8436 50.9544 144.4460
ENERGY: 1100000 0.0000 0.0000 0.0000 0.0000 -10794.4120 1440.5533 0.0000 0.0000 1737.0920 -7616.7668 299.4671 -9353.8588 -7612.9609 299.7554 19.1631 87.4788 29970.0047 3.6344 3.7372
ENERGY: 1300000 0.0000 0.0000 0.0000 0.0000 -10742.8096 1424.4427 0.0000 0.0000 1719.3927 -7598.9743 296.4158 -9318.3670 -7597.2630 299.6474 -173.5936 -39.8021 30067.0525 3.6694 3.5076
ENERGY: 1500000 0.0000 0.0000 0.0000 0.0000 -10774.4677 1413.2168 0.0000 0.0000 1772.0061 -7589.2448 305.4861 -9361.2508 -7583.7488 300.5107 -274.4594 -234.5821 30340.6943 3.8853 3.7961
ENERGY: 1700000 0.0000 0.0000 0.0000 0.0000 -10768.8180 1492.6260 0.0000 0.0000 1741.5419 -7534.6501 300.2342 -9276.1920 -7533.1895 300.4272 709.4387 756.5711 30035.0827 2.7457 2.8891
ENERGY: 1900000 0.0000 0.0000 0.0000 0.0000 -10741.5315 1441.0870 0.0000 0.0000 1793.7763 -7506.6682 309.2392 -9300.4445 -7502.5979 299.6769 -91.1630 -56.7113 30426.9391 2.9881 2.8792
TCL: Exiting due to exit command.
