Info: SIMULATION PARAMETERS:
Info: TIMESTEP               2
Info: NUMBER OF STEPS        0
Info: STEPS PER CYCLE        10
Info: PERIODIC CELL BASIS 1  37.435 0 0
Info: PERIODIC CELL BASIS 2  0 35.411 0
Info: PERIODIC CELL BASIS 3  0 0 31.349
Info: PERIODIC CELL CENTER   0 0 0
Info: WRAPPING WATERS AROUND PERIODIC BOUNDARIES ON OUTPUT.
Info: WRAPPING ALL CLUSTERS AROUND PERIODIC BOUNDARIES ON OUTPUT.
Info: FIRST LDB TIMESTEP     50
Info: LAST LDB TIMESTEP     -1
Info: HOM BACKGROUND SCALING 1
Info: PME BACKGROUND SCALING 1
Info: MIN ATOMS PER PATCH    40
Info: EMPTY PATCH LOAD       40 ATOMS
Info: INITIAL TEMPERATURE    300
Info: CENTER OF MASS MOVING INITIALLY? NO
Info: DIELECTRIC             1
Info: EXCLUDE                SCALED ONE-FOUR
Info: 1-4 ELECTROSTATICS SCALED BY 0.833333
Info: MODIFIED 1-4 VDW PARAMETERS WILL BE USED
Info: DCD FILENAME           mobley_7988076_equil.dcd
Info: DCD FREQUENCY          100000
Info: DCD FIRST STEP         100000
Info: DCD FILE WILL CONTAIN UNIT CELL DATA
Info: XST FILENAME           mobley_7988076_equil.xst
Info: XST FREQUENCY          100000
Info: NO VELOCITY DCD OUTPUT
Info: NO FORCE DCD OUTPUT
Info: OUTPUT FILENAME        mobley_7988076_equil
Info: BINARY OUTPUT FILES WILL BE USED
Info: RESTART FILENAME       mobley_7988076_equil.restart
Info: RESTART FREQUENCY      100000
Info: BINARY RESTART FILES WILL BE USED
Info: CUTOFF                 9
Info: PAIRLIST DISTANCE      11
Info: PAIRLIST SHRINK RATE   0.01
Info: PAIRLIST GROW RATE     0.01
Info: PAIRLIST TRIGGER       0.3
Info: PAIRLISTS PER CYCLE    2
Info: PAIRLISTS ENABLED
Info: MARGIN                 8
Info: HYDROGEN GROUP CUTOFF  2.5
Info: PATCH DIMENSION        21.5
Info: ENERGY OUTPUT STEPS    100000
Info: ENERGY EVALUATION STEPS    100000
Info: OUTPUT ENERGY PRECISION 4
Info: CROSSTERM ENERGY INCLUDED IN DIHEDRAL
Info: TIMING OUTPUT STEPS    1000000
Info: PRESSURE OUTPUT STEPS  100000
Info: FIXED ATOMS ACTIVE
Info: LANGEVIN DYNAMICS ACTIVE
Info: LANGEVIN TEMPERATURE   30
Info: LANGEVIN USING BBK INTEGRATOR
Info: LANGEVIN DAMPING COEFFICIENT IS 1 INVERSE PS
Info: LANGEVIN DYNAMICS APPLIED TO HYDROGENS
Info: LANGEVIN PISTON PRESSURE CONTROL ACTIVE
Info:        TARGET PRESSURE IS 1.01325 BAR
Info:     OSCILLATION PERIOD IS 50 FS
Info:             DECAY TIME IS 25 FS
Info:     PISTON TEMPERATURE IS 300 K
Info:       PRESSURE CONTROL IS GROUP-BASED
Info:    INITIAL STRAIN RATE IS 0 0 0
Info:       CELL FLUCTUATION IS ISOTROPIC
Info: PARTICLE MESH EWALD (PME) ACTIVE
Info: PME TOLERANCE               1e-06
Info: PME EWALD COEFFICIENT       0.348832
Info: PME INTERPOLATION ORDER     4
Info: PME GRID DIMENSIONS         40 36 32
Info: PME MAXIMUM GRID SPACING    1
Info: FULL ELECTROSTATIC EVALUATION FREQUENCY      2
Info: USING VERLET I (r-RESPA) MTS SCHEME.
Info: C1 SPLITTING OF LONG RANGE ELECTROSTATICS
Info: PLACING ATOMS IN PATCHES BY HYDROGEN GROUPS
Info: RIGID BONDS TO HYDROGEN : ALL
Info:         ERROR TOLERANCE : 1e-08
Info:          MAX ITERATIONS : 100
Info: RIGID WATER USING SETTLE ALGORITHM
Info: RANDOM NUMBER SEED     1744721127
Info: USE HYDROGEN BONDS?    NO
Info: Using AMBER format force field!
Info: AMBER PARM FILE        mobley_7988076.prmtop
Info: COORDINATE PDB         mobley_7988076.pdb
Info: Exclusions will be read from PARM file!
Info: SCNB (VDW SCALING)     2
Info: USING ARITHMETIC MEAN TO COMBINE L-J SIGMA PARAMETERS
Info: BINARY COORDINATES     mobley_7988076_min.coor
Info: SUMMARY OF PARAMETERS:
Info: 9 BONDS
Info: 8 ANGLES
Info:   8 HARMONIC
Info:   0 COSINE-BASED
Info: 5 DIHEDRAL
Info: 0 IMPROPER
Info: 0 CROSSTERM
Info: 0 VDW
Info: 28 VDW_PAIRS
Info: 0 NBTHOLE_PAIRS
Info: STRUCTURE SUMMARY:
Info: 2901 ATOMS
Info: 2901 BONDS
Info: 22 ANGLES
Info: 37 DIHEDRALS
Info: 0 IMPROPERS
Info: 0 CROSSTERMS
Info: 2950 EXCLUSIONS
Info: 15 FIXED ATOMS
Info: 2892 RIGID BONDS
Info: 6 RIGID BONDS BETWEEN FIXED ATOMS
Info: 5772 DEGREES OF FREEDOM
Info: 971 HYDROGEN GROUPS
Info: 3 ATOMS IN LARGEST HYDROGEN GROUP
Info: 971 MIGRATION GROUPS
Info: 3 ATOMS IN LARGEST MIGRATION GROUP
Info: 9 HYDROGEN GROUPS WITH ALL ATOMS FIXED
Info: TOTAL MASS = 17453.5 amu
Info: TOTAL CHARGE = -2.18861e-08 e
Info: MASS DENSITY = 0.697433 g/cm^3
Info: ATOM DENSITY = 0.0698085 atoms/A^3
Info: ADDED 0 IMPLICIT EXCLUSIONS
Info: NONBONDED TABLE R-SQUARED SPACING: 0.0625
Info: NONBONDED TABLE SIZE: 705 POINTS
Info: REMOVING COM VELOCITY 0.108219 -0.0109949 -0.0574866
TCL: Running for 100000 steps
ETITLE: TS BOND ANGLE DIHED IMPRP ELECT VDW BOUNDARY MISC KINETIC TOTAL TEMP POTENTIAL TOTAL3 TEMPAVG PRESSURE GPRESSURE VOLUME PRESSAVG GPRESSAVG
ENERGY: 0 0.0000 0.0000 0.0000 0.0000 -13518.5061 2321.2483 0.0000 0.0000 1688.7124 -9508.5454 294.4556 -11197.2577 -9508.2142 294.4556 59.0135 99.8526 41556.5725 59.0135 99.8526
ENERGY: 100000 0.0000 0.0000 0.0000 0.0000 -13866.6389 2288.9297 0.0000 0.0000 172.4048 -11405.3043 30.0617 -11577.7091 -11404.6338 30.8827 -1191.1699 -1133.7552 29408.1144 4.1128 4.0281
TCL: Running 100000 steps at 60 kelvin.
TCL: Setting parameter langevinTemp to 60
TCL: Running for 100000 steps
ETITLE: TS BOND ANGLE DIHED IMPRP ELECT VDW BOUNDARY MISC KINETIC TOTAL TEMP POTENTIAL TOTAL3 TEMPAVG PRESSURE GPRESSURE VOLUME PRESSAVG GPRESSAVG
ENERGY: 100000 0.0000 0.0000 0.0000 0.0000 -13866.6389 2288.9297 0.0000 0.0000 172.3190 -11405.3901 30.0467 -11577.7091 -11405.0046 30.0467 -1191.9766 -1133.5889 29408.1144 -1191.9766 -1133.5889
ENERGY: 200000 0.0000 0.0000 0.0000 0.0000 -13859.6589 2326.7873 0.0000 0.0000 337.7105 -11195.1610 58.8855 -11532.8715 -11194.5299 59.9013 -536.9730 -505.2953 28829.6436 4.1974 4.2655
TCL: Running 100000 steps at 90 kelvin.
TCL: Setting parameter langevinTemp to 90
TCL: Running for 100000 steps
ETITLE: TS BOND ANGLE DIHED IMPRP ELECT VDW BOUNDARY MISC KINETIC TOTAL TEMP POTENTIAL TOTAL3 TEMPAVG PRESSURE GPRESSURE VOLUME PRESSAVG GPRESSAVG
ENERGY: 200000 0.0000 0.0000 0.0000 0.0000 -13859.6589 2326.7873 0.0000 0.0000 337.5456 -11195.3259 58.8568 -11532.8715 -11194.4948 58.8568 -556.7591 -505.7441 28829.6436 -556.7591 -505.7441
ENERGY: 300000 0.0000 0.0000 0.0000 0.0000 -13769.9500 2356.7263 0.0000 0.0000 528.0069 -10885.2167 92.0669 -11413.2237 -10883.7491 89.9740 351.7245 371.1579 28452.1826 5.0876 5.0400
TCL: Running 100000 steps at 120 kelvin.
TCL: Setting parameter langevinTemp to 120
TCL: Running for 100000 steps
ETITLE: TS BOND ANGLE DIHED IMPRP ELECT VDW BOUNDARY MISC KINETIC TOTAL TEMP POTENTIAL TOTAL3 TEMPAVG PRESSURE GPRESSURE VOLUME PRESSAVG GPRESSAVG
ENERGY: 300000 0.0000 0.0000 0.0000 0.0000 -13769.9500 2356.7263 0.0000 0.0000 527.7520 -10885.4717 92.0225 -11413.2237 -10884.5286 92.0225 321.8386 370.9544 28452.1826 321.8386 370.9544
ENERGY: 400000 0.0000 0.0000 0.0000 0.0000 -13524.6302 2173.2697 0.0000 0.0000 676.8427 -10674.5178 118.0190 -11351.3605 -10673.9996 119.8265 -1196.9869 -1136.4832 28707.5384 3.9222 4.1241
TCL: Running 100000 steps at 150 kelvin.
TCL: Setting parameter langevinTemp to 150
TCL: Running for 100000 steps
ETITLE: TS BOND ANGLE DIHED IMPRP ELECT VDW BOUNDARY MISC KINETIC TOTAL TEMP POTENTIAL TOTAL3 TEMPAVG PRESSURE GPRESSURE VOLUME PRESSAVG GPRESSAVG
ENERGY: 400000 0.0000 0.0000 0.0000 0.0000 -13524.6302 2173.2697 0.0000 0.0000 676.4933 -10674.8672 117.9580 -11351.3605 -10673.0214 117.9580 -1196.5277 -1137.1646 28707.5384 -1196.5277 -1137.1646
ENERGY: 500000 0.0000 0.0000 0.0000 0.0000 -13373.4088 2213.8553 0.0000 0.0000 891.7126 -10267.8409 155.4852 -11159.5535 -10266.3528 149.9459 303.5870 330.8107 28073.7701 4.0357 4.1460
TCL: Running 100000 steps at 180 kelvin.
TCL: Setting parameter langevinTemp to 180
TCL: Running for 100000 steps
ETITLE: TS BOND ANGLE DIHED IMPRP ELECT VDW BOUNDARY MISC KINETIC TOTAL TEMP POTENTIAL TOTAL3 TEMPAVG PRESSURE GPRESSURE VOLUME PRESSAVG GPRESSAVG
ENERGY: 500000 0.0000 0.0000 0.0000 0.0000 -13373.4088 2213.8553 0.0000 0.0000 891.2923 -10268.2612 155.4119 -11159.5535 -10266.4555 155.4119 278.7029 329.7910 28073.7701 278.7029 329.7910
ENERGY: 600000 0.0000 0.0000 0.0000 0.0000 -12960.9665 2078.8915 0.0000 0.0000 1039.7647 -9842.3103 181.3005 -10882.0750 -9838.8080 179.5268 -108.4370 -55.6435 28575.5157 5.3914 5.4625
TCL: Running 100000 steps at 210 kelvin.
TCL: Setting parameter langevinTemp to 210
TCL: Running for 100000 steps
ETITLE: TS BOND ANGLE DIHED IMPRP ELECT VDW BOUNDARY MISC KINETIC TOTAL TEMP POTENTIAL TOTAL3 TEMPAVG PRESSURE GPRESSURE VOLUME PRESSAVG GPRESSAVG
ENERGY: 600000 0.0000 0.0000 0.0000 0.0000 -12960.9665 2078.8915 0.0000 0.0000 1039.2530 -9842.8219 181.2113 -10882.0750 -9840.7627 181.2113 -125.3752 -55.9794 28575.5157 -125.3752 -55.9794
ENERGY: 700000 0.0000 0.0000 0.0000 0.0000 -12282.4005 1816.0057 0.0000 0.0000 1220.0460 -9246.3489 212.7356 -10466.3948 -9241.6186 209.7971 -619.1221 -556.5224 28647.3244 3.1222 3.2316
TCL: Running 100000 steps at 240 kelvin.
TCL: Setting parameter langevinTemp to 240
TCL: Running for 100000 steps
ETITLE: TS BOND ANGLE DIHED IMPRP ELECT VDW BOUNDARY MISC KINETIC TOTAL TEMP POTENTIAL TOTAL3 TEMPAVG PRESSURE GPRESSURE VOLUME PRESSAVG GPRESSAVG
ENERGY: 700000 0.0000 0.0000 0.0000 0.0000 -12282.4005 1816.0057 0.0000 0.0000 1219.4458 -9246.9491 212.6310 -10466.3948 -9245.0132 212.6310 -629.4467 -553.7412 28647.3244 -629.4467 -553.7412
ENERGY: 800000 0.0000 0.0000 0.0000 0.0000 -11568.9547 1625.6345 0.0000 0.0000 1392.1755 -8551.1447 242.7493 -9943.3203 -8549.3854 239.9832 -314.1257 -198.2732 28480.0627 3.8805 3.9855
TCL: Running 100000 steps at 270 kelvin.
TCL: Setting parameter langevinTemp to 270
TCL: Running for 100000 steps
ETITLE: TS BOND ANGLE DIHED IMPRP ELECT VDW BOUNDARY MISC KINETIC TOTAL TEMP POTENTIAL TOTAL3 TEMPAVG PRESSURE GPRESSURE VOLUME PRESSAVG GPRESSAVG
ENERGY: 800000 0.0000 0.0000 0.0000 0.0000 -11568.9547 1625.6345 0.0000 0.0000 1391.5018 -8551.8185 242.6319 -9943.3203 -8549.3817 242.6319 -287.6309 -200.0320 28480.0627 -287.6309 -200.0320
ENERGY: 900000 0.0000 0.0000 0.0000 0.0000 -11082.6634 1565.6583 0.0000 0.0000 1562.8262 -7954.1789 272.5052 -9517.0051 -7951.9710 270.1376 393.4988 538.2748 29054.2855 3.3860 3.4495
TCL: Running 1000000 steps at 300 kelvin.
TCL: Setting parameter langevinTemp to 300
TCL: Running for 1000000 steps
ETITLE: TS BOND ANGLE DIHED IMPRP ELECT VDW BOUNDARY MISC KINETIC TOTAL TEMP POTENTIAL TOTAL3 TEMPAVG PRESSURE GPRESSURE VOLUME PRESSAVG GPRESSAVG
ENERGY: 900000 0.0000 0.0000 0.0000 0.0000 -11082.6634 1565.6583 0.0000 0.0000 1562.0400 -7954.9651 272.3681 -9517.0051 -7953.5615 272.3681 437.4107 537.0935 29054.2855 437.4107 537.0935
ENERGY: 1100000 0.0000 0.0000 0.0000 0.0000 -10490.3795 1295.3072 0.0000 0.0000 1768.9615 -7426.1108 308.4483 -9195.0723 -7423.8425 299.9511 -946.1635 -882.2959 30115.6298 2.9164 2.8802
ENERGY: 1300000 0.0000 0.0000 0.0000 0.0000 -10634.2248 1430.3568 0.0000 0.0000 1740.5011 -7463.3669 303.4858 -9203.8680 -7458.9741 300.0320 245.8251 346.3439 29729.7362 4.3958 4.5454
ENERGY: 1500000 0.0000 0.0000 0.0000 0.0000 -10716.3841 1486.3671 0.0000 0.0000 1751.3230 -7478.6941 305.3728 -9230.0171 -7476.4433 300.1919 502.3400 564.7476 29651.4042 3.1431 3.2733
ENERGY: 1700000 0.0000 0.0000 0.0000 0.0000 -10479.1474 1326.8076 0.0000 0.0000 1688.2578 -7464.0820 294.3763 -9152.3398 -7460.1046 300.4303 -466.4850 -349.7805 29562.3748 1.9816 1.9212
ENERGY: 1900000 0.0000 0.0000 0.0000 0.0000 -10555.8430 1360.8063 0.0000 0.0000 1731.3172 -7463.7194 301.8844 -9195.0367 -7459.9214 300.5891 -461.2664 -377.4900 29763.8031 3.2337 3.1412
TCL: Exiting due to exit command.
