Info: SIMULATION PARAMETERS:
Info: TIMESTEP               2
Info: NUMBER OF STEPS        0
Info: STEPS PER CYCLE        10
Info: PERIODIC CELL BASIS 1  38.861 0 0
Info: PERIODIC CELL BASIS 2  0 34.696 0
Info: PERIODIC CELL BASIS 3  0 0 31.855
Info: PERIODIC CELL CENTER   0 0 0
Info: WRAPPING WATERS AROUND PERIODIC BOUNDARIES ON OUTPUT.
Info: WRAPPING ALL CLUSTERS AROUND PERIODIC BOUNDARIES ON OUTPUT.
Info: FIRST LDB TIMESTEP     50
Info: LAST LDB TIMESTEP     -1
Info: HOM BACKGROUND SCALING 1
Info: PME BACKGROUND SCALING 1
Info: MIN ATOMS PER PATCH    40
Info: EMPTY PATCH LOAD       40 ATOMS
Info: INITIAL TEMPERATURE    300
Info: CENTER OF MASS MOVING INITIALLY? NO
Info: DIELECTRIC             1
Info: EXCLUDE                SCALED ONE-FOUR
Info: 1-4 ELECTROSTATICS SCALED BY 0.833333
Info: MODIFIED 1-4 VDW PARAMETERS WILL BE USED
Info: DCD FILENAME           mobley_349850_equil.dcd
Info: DCD FREQUENCY          100000
Info: DCD FIRST STEP         100000
Info: DCD FILE WILL CONTAIN UNIT CELL DATA
Info: XST FILENAME           mobley_349850_equil.xst
Info: XST FREQUENCY          100000
Info: NO VELOCITY DCD OUTPUT
Info: NO FORCE DCD OUTPUT
Info: OUTPUT FILENAME        mobley_349850_equil
Info: BINARY OUTPUT FILES WILL BE USED
Info: RESTART FILENAME       mobley_349850_equil.restart
Info: RESTART FREQUENCY      100000
Info: BINARY RESTART FILES WILL BE USED
Info: CUTOFF                 9
Info: PAIRLIST DISTANCE      11
Info: PAIRLIST SHRINK RATE   0.01
Info: PAIRLIST GROW RATE     0.01
Info: PAIRLIST TRIGGER       0.3
Info: PAIRLISTS PER CYCLE    2
Info: PAIRLISTS ENABLED
Info: MARGIN                 8
Info: HYDROGEN GROUP CUTOFF  2.5
Info: PATCH DIMENSION        21.5
Info: ENERGY OUTPUT STEPS    100000
Info: ENERGY EVALUATION STEPS    100000
Info: OUTPUT ENERGY PRECISION 4
Info: CROSSTERM ENERGY INCLUDED IN DIHEDRAL
Info: TIMING OUTPUT STEPS    1000000
Info: PRESSURE OUTPUT STEPS  100000
Info: FIXED ATOMS ACTIVE
Info: LANGEVIN DYNAMICS ACTIVE
Info: LANGEVIN TEMPERATURE   30
Info: LANGEVIN USING BBK INTEGRATOR
Info: LANGEVIN DAMPING COEFFICIENT IS 1 INVERSE PS
Info: LANGEVIN DYNAMICS APPLIED TO HYDROGENS
Info: LANGEVIN PISTON PRESSURE CONTROL ACTIVE
Info:        TARGET PRESSURE IS 1.01325 BAR
Info:     OSCILLATION PERIOD IS 50 FS
Info:             DECAY TIME IS 25 FS
Info:     PISTON TEMPERATURE IS 300 K
Info:       PRESSURE CONTROL IS GROUP-BASED
Info:    INITIAL STRAIN RATE IS 0 0 0
Info:       CELL FLUCTUATION IS ISOTROPIC
Info: PARTICLE MESH EWALD (PME) ACTIVE
Info: PME TOLERANCE               1e-06
Info: PME EWALD COEFFICIENT       0.348832
Info: PME INTERPOLATION ORDER     4
Info: PME GRID DIMENSIONS         40 36 32
Info: PME MAXIMUM GRID SPACING    1
Info: FULL ELECTROSTATIC EVALUATION FREQUENCY      2
Info: USING VERLET I (r-RESPA) MTS SCHEME.
Info: C1 SPLITTING OF LONG RANGE ELECTROSTATICS
Info: PLACING ATOMS IN PATCHES BY HYDROGEN GROUPS
Info: RIGID BONDS TO HYDROGEN : ALL
Info:         ERROR TOLERANCE : 1e-08
Info:          MAX ITERATIONS : 100
Info: RIGID WATER USING SETTLE ALGORITHM
Info: RANDOM NUMBER SEED     1744721502
Info: USE HYDROGEN BONDS?    NO
Info: Using AMBER format force field!
Info: AMBER PARM FILE        mobley_349850.prmtop
Info: COORDINATE PDB         mobley_349850.pdb
Info: Exclusions will be read from PARM file!
Info: SCNB (VDW SCALING)     2
Info: USING ARITHMETIC MEAN TO COMBINE L-J SIGMA PARAMETERS
Info: BINARY COORDINATES     mobley_349850_min.coor
Info: SUMMARY OF PARAMETERS:
Info: 9 BONDS
Info: 10 ANGLES
Info:   10 HARMONIC
Info:   0 COSINE-BASED
Info: 8 DIHEDRAL
Info: 0 IMPROPER
Info: 0 CROSSTERM
Info: 0 VDW
Info: 28 VDW_PAIRS
Info: 0 NBTHOLE_PAIRS
Info: STRUCTURE SUMMARY:
Info: 2939 ATOMS
Info: 2939 BONDS
Info: 33 ANGLES
Info: 53 DIHEDRALS
Info: 0 IMPROPERS
Info: 0 CROSSTERMS
Info: 3009 EXCLUSIONS
Info: 20 FIXED ATOMS
Info: 2929 RIGID BONDS
Info: 10 RIGID BONDS BETWEEN FIXED ATOMS
Info: 5838 DEGREES OF FREEDOM
Info: 983 HYDROGEN GROUPS
Info: 4 ATOMS IN LARGEST HYDROGEN GROUP
Info: 983 MIGRATION GROUPS
Info: 4 ATOMS IN LARGEST MIGRATION GROUP
Info: 10 HYDROGEN GROUPS WITH ALL ATOMS FIXED
Info: TOTAL MASS = 17663.7 amu
Info: TOTAL CHARGE = -0.000100061 e
Info: MASS DENSITY = 0.682922 g/cm^3
Info: ATOM DENSITY = 0.0684272 atoms/A^3
Info: ADDED 0 IMPLICIT EXCLUSIONS
Info: NONBONDED TABLE R-SQUARED SPACING: 0.0625
Info: NONBONDED TABLE SIZE: 705 POINTS
Info: REMOVING COM VELOCITY 0.0866544 0.190816 -0.0133641
TCL: Running for 100000 steps
ETITLE: TS BOND ANGLE DIHED IMPRP ELECT VDW BOUNDARY MISC KINETIC TOTAL TEMP POTENTIAL TOTAL3 TEMPAVG PRESSURE GPRESSURE VOLUME PRESSAVG GPRESSAVG
ENERGY: 0 0.0000 0.0000 0.0000 0.0000 -13633.7334 2361.5926 0.0000 0.0000 1791.6207 -9480.5200 308.8676 -11272.1407 -9480.1472 308.8676 286.2678 317.3537 42950.7736 286.2678 317.3537
ENERGY: 100000 0.0000 0.0000 0.0000 0.0000 -14164.1265 2463.7312 0.0000 0.0000 174.6268 -11525.7686 30.1049 -11700.3954 -11525.3037 30.9389 -137.3602 -92.8704 29744.7693 5.0162 5.0249
TCL: Running 100000 steps at 60 kelvin.
TCL: Setting parameter langevinTemp to 60
TCL: Running for 100000 steps
ETITLE: TS BOND ANGLE DIHED IMPRP ELECT VDW BOUNDARY MISC KINETIC TOTAL TEMP POTENTIAL TOTAL3 TEMPAVG PRESSURE GPRESSURE VOLUME PRESSAVG GPRESSAVG
ENERGY: 100000 0.0000 0.0000 0.0000 0.0000 -14164.1265 2463.7312 0.0000 0.0000 174.5393 -11525.8561 30.0898 -11700.3954 -11525.4867 30.0898 -146.6832 -92.7446 29744.7693 -146.6832 -92.7446
ENERGY: 200000 0.0000 0.0000 0.0000 0.0000 -14051.1919 2464.4094 0.0000 0.0000 349.4509 -11237.3316 60.2438 -11586.7825 -11237.0261 59.8709 362.3547 441.8018 29627.7531 5.7406 5.7627
TCL: Running 100000 steps at 90 kelvin.
TCL: Setting parameter langevinTemp to 90
TCL: Running for 100000 steps
ETITLE: TS BOND ANGLE DIHED IMPRP ELECT VDW BOUNDARY MISC KINETIC TOTAL TEMP POTENTIAL TOTAL3 TEMPAVG PRESSURE GPRESSURE VOLUME PRESSAVG GPRESSAVG
ENERGY: 200000 0.0000 0.0000 0.0000 0.0000 -14051.1919 2464.4094 0.0000 0.0000 349.2842 -11237.4983 60.2151 -11586.7825 -11236.7643 60.2151 388.6770 441.2274 29627.7531 388.6770 441.2274
ENERGY: 300000 0.0000 0.0000 0.0000 0.0000 -13967.1427 2424.8895 0.0000 0.0000 520.5909 -11021.6623 89.7476 -11542.2533 -11020.6198 90.0984 526.3041 595.8710 28778.4743 3.3311 3.3541
TCL: Running 100000 steps at 120 kelvin.
TCL: Setting parameter langevinTemp to 120
TCL: Running for 100000 steps
ETITLE: TS BOND ANGLE DIHED IMPRP ELECT VDW BOUNDARY MISC KINETIC TOTAL TEMP POTENTIAL TOTAL3 TEMPAVG PRESSURE GPRESSURE VOLUME PRESSAVG GPRESSAVG
ENERGY: 300000 0.0000 0.0000 0.0000 0.0000 -13967.1427 2424.8895 0.0000 0.0000 520.3246 -11021.9286 89.7017 -11542.2533 -11020.8876 89.7017 542.4084 595.9780 28778.4743 542.4084 595.9780
ENERGY: 400000 0.0000 0.0000 0.0000 0.0000 -13794.9542 2385.9526 0.0000 0.0000 683.4489 -10725.5526 117.8236 -11409.0016 -10725.2768 120.1971 617.2394 642.1749 29089.3191 4.6609 4.6791
TCL: Running 100000 steps at 150 kelvin.
TCL: Setting parameter langevinTemp to 150
TCL: Running for 100000 steps
ETITLE: TS BOND ANGLE DIHED IMPRP ELECT VDW BOUNDARY MISC KINETIC TOTAL TEMP POTENTIAL TOTAL3 TEMPAVG PRESSURE GPRESSURE VOLUME PRESSAVG GPRESSAVG
ENERGY: 400000 0.0000 0.0000 0.0000 0.0000 -13794.9542 2385.9526 0.0000 0.0000 683.1077 -10725.8939 117.7648 -11409.0016 -10724.7559 117.7648 601.0337 641.1334 29089.3191 601.0337 641.1334
ENERGY: 500000 0.0000 0.0000 0.0000 0.0000 -13603.0494 2322.7539 0.0000 0.0000 878.4656 -10401.8298 151.4436 -11280.2954 -10399.2079 149.9398 425.5339 484.9939 29117.7117 4.3043 4.3973
TCL: Running 100000 steps at 180 kelvin.
TCL: Setting parameter langevinTemp to 180
TCL: Running for 100000 steps
ETITLE: TS BOND ANGLE DIHED IMPRP ELECT VDW BOUNDARY MISC KINETIC TOTAL TEMP POTENTIAL TOTAL3 TEMPAVG PRESSURE GPRESSURE VOLUME PRESSAVG GPRESSAVG
ENERGY: 500000 0.0000 0.0000 0.0000 0.0000 -13603.0494 2322.7539 0.0000 0.0000 878.0420 -10402.2534 151.3706 -11280.2954 -10400.5022 151.3706 437.0202 484.2586 29117.7117 437.0202 484.2586
ENERGY: 600000 0.0000 0.0000 0.0000 0.0000 -13001.2519 2019.2735 0.0000 0.0000 1055.6653 -9926.3132 181.9921 -10981.9785 -9922.2078 179.5927 -670.5278 -603.7099 28901.4780 4.8639 4.8668
TCL: Running 100000 steps at 210 kelvin.
TCL: Setting parameter langevinTemp to 210
TCL: Running for 100000 steps
ETITLE: TS BOND ANGLE DIHED IMPRP ELECT VDW BOUNDARY MISC KINETIC TOTAL TEMP POTENTIAL TOTAL3 TEMPAVG PRESSURE GPRESSURE VOLUME PRESSAVG GPRESSAVG
ENERGY: 600000 0.0000 0.0000 0.0000 0.0000 -13001.2519 2019.2735 0.0000 0.0000 1055.1825 -9926.7960 181.9089 -10981.9785 -9924.7596 181.9089 -669.3351 -603.1160 28901.4780 -669.3351 -603.1160
ENERGY: 700000 0.0000 0.0000 0.0000 0.0000 -12494.3704 1935.7023 0.0000 0.0000 1215.1624 -9343.5057 209.4887 -10558.6681 -9340.5829 209.9387 344.2519 440.4985 28600.5424 1.1891 1.0352
TCL: Running 100000 steps at 240 kelvin.
TCL: Setting parameter langevinTemp to 240
TCL: Running for 100000 steps
ETITLE: TS BOND ANGLE DIHED IMPRP ELECT VDW BOUNDARY MISC KINETIC TOTAL TEMP POTENTIAL TOTAL3 TEMPAVG PRESSURE GPRESSURE VOLUME PRESSAVG GPRESSAVG
ENERGY: 700000 0.0000 0.0000 0.0000 0.0000 -12494.3704 1935.7023 0.0000 0.0000 1214.5635 -9344.1046 209.3855 -10558.6681 -9342.7737 209.3855 362.9038 440.8624 28600.5424 362.9038 440.8624
ENERGY: 800000 0.0000 0.0000 0.0000 0.0000 -11921.6915 1819.9324 0.0000 0.0000 1343.1931 -8758.5660 231.5606 -10101.7590 -8757.9882 239.9751 1000.0660 1092.9371 28687.2350 5.2481 5.2224
TCL: Running 100000 steps at 270 kelvin.
TCL: Setting parameter langevinTemp to 270
TCL: Running for 100000 steps
ETITLE: TS BOND ANGLE DIHED IMPRP ELECT VDW BOUNDARY MISC KINETIC TOTAL TEMP POTENTIAL TOTAL3 TEMPAVG PRESSURE GPRESSURE VOLUME PRESSAVG GPRESSAVG
ENERGY: 800000 0.0000 0.0000 0.0000 0.0000 -11921.6915 1819.9324 0.0000 0.0000 1342.5210 -8759.2381 231.4448 -10101.7590 -8757.4041 231.4448 1002.3940 1091.1583 28687.2350 1002.3940 1091.1583
ENERGY: 900000 0.0000 0.0000 0.0000 0.0000 -11200.2332 1530.9384 0.0000 0.0000 1590.6044 -8078.6903 274.2133 -9669.2948 -8074.1827 269.2333 -20.1630 35.7544 29464.1055 3.2202 3.4181
TCL: Running 1000000 steps at 300 kelvin.
TCL: Setting parameter langevinTemp to 300
TCL: Running for 1000000 steps
ETITLE: TS BOND ANGLE DIHED IMPRP ELECT VDW BOUNDARY MISC KINETIC TOTAL TEMP POTENTIAL TOTAL3 TEMPAVG PRESSURE GPRESSURE VOLUME PRESSAVG GPRESSAVG
ENERGY: 900000 0.0000 0.0000 0.0000 0.0000 -11200.2332 1530.9384 0.0000 0.0000 1589.8146 -8079.4802 274.0771 -9669.2948 -8077.3781 274.0771 -43.7550 37.4340 29464.1055 -43.7550 37.4340
ENERGY: 1100000 0.0000 0.0000 0.0000 0.0000 -10624.9717 1348.4850 0.0000 0.0000 1748.2876 -7528.1991 301.3972 -9276.4867 -7525.7249 299.9299 -643.9869 -542.1678 30140.9442 3.4079 3.3403
ENERGY: 1300000 0.0000 0.0000 0.0000 0.0000 -10762.7312 1485.8202 0.0000 0.0000 1715.9688 -7560.9422 295.8256 -9276.9111 -7556.2539 300.0015 177.1596 307.7036 30549.4501 3.3973 3.3798
ENERGY: 1500000 0.0000 0.0000 0.0000 0.0000 -10690.8169 1438.4539 0.0000 0.0000 1727.6278 -7524.7353 297.8355 -9252.3631 -7520.6629 300.3147 35.4785 54.9703 30528.5618 3.8118 3.6910
ENERGY: 1700000 0.0000 0.0000 0.0000 0.0000 -10639.7556 1433.0557 0.0000 0.0000 1775.0876 -7431.6123 306.0174 -9206.6999 -7428.4613 300.0212 74.3017 153.3944 30409.1472 3.6028 3.5578
ENERGY: 1900000 0.0000 0.0000 0.0000 0.0000 -10780.6194 1446.7753 0.0000 0.0000 1707.5695 -7626.2746 294.3775 -9333.8441 -7625.1635 300.0241 -12.1077 48.5416 30356.7723 2.8528 2.7768
TCL: Exiting due to exit command.
