Info: SIMULATION PARAMETERS:
Info: TIMESTEP               2
Info: NUMBER OF STEPS        0
Info: STEPS PER CYCLE        10
Info: PERIODIC CELL BASIS 1  37.38 0 0
Info: PERIODIC CELL BASIS 2  0 35.847 0
Info: PERIODIC CELL BASIS 3  0 0 33.876
Info: PERIODIC CELL CENTER   0 0 0
Info: WRAPPING WATERS AROUND PERIODIC BOUNDARIES ON OUTPUT.
Info: WRAPPING ALL CLUSTERS AROUND PERIODIC BOUNDARIES ON OUTPUT.
Info: FIRST LDB TIMESTEP     50
Info: LAST LDB TIMESTEP     -1
Info: HOM BACKGROUND SCALING 1
Info: PME BACKGROUND SCALING 1
Info: MIN ATOMS PER PATCH    40
Info: EMPTY PATCH LOAD       40 ATOMS
Info: INITIAL TEMPERATURE    300
Info: CENTER OF MASS MOVING INITIALLY? NO
Info: DIELECTRIC             1
Info: EXCLUDE                SCALED ONE-FOUR
Info: 1-4 ELECTROSTATICS SCALED BY 0.833333
Info: MODIFIED 1-4 VDW PARAMETERS WILL BE USED
Info: DCD FILENAME           mobley_9534740_equil.dcd
Info: DCD FREQUENCY          100000
Info: DCD FIRST STEP         100000
Info: DCD FILE WILL CONTAIN UNIT CELL DATA
Info: XST FILENAME           mobley_9534740_equil.xst
Info: XST FREQUENCY          100000
Info: NO VELOCITY DCD OUTPUT
Info: NO FORCE DCD OUTPUT
Info: OUTPUT FILENAME        mobley_9534740_equil
Info: BINARY OUTPUT FILES WILL BE USED
Info: RESTART FILENAME       mobley_9534740_equil.restart
Info: RESTART FREQUENCY      100000
Info: BINARY RESTART FILES WILL BE USED
Info: CUTOFF                 9
Info: PAIRLIST DISTANCE      11
Info: PAIRLIST SHRINK RATE   0.01
Info: PAIRLIST GROW RATE     0.01
Info: PAIRLIST TRIGGER       0.3
Info: PAIRLISTS PER CYCLE    2
Info: PAIRLISTS ENABLED
Info: MARGIN                 8
Info: HYDROGEN GROUP CUTOFF  2.5
Info: PATCH DIMENSION        21.5
Info: ENERGY OUTPUT STEPS    100000
Info: ENERGY EVALUATION STEPS    100000
Info: OUTPUT ENERGY PRECISION 4
Info: CROSSTERM ENERGY INCLUDED IN DIHEDRAL
Info: TIMING OUTPUT STEPS    1000000
Info: PRESSURE OUTPUT STEPS  100000
Info: FIXED ATOMS ACTIVE
Info: LANGEVIN DYNAMICS ACTIVE
Info: LANGEVIN TEMPERATURE   30
Info: LANGEVIN USING BBK INTEGRATOR
Info: LANGEVIN DAMPING COEFFICIENT IS 1 INVERSE PS
Info: LANGEVIN DYNAMICS APPLIED TO HYDROGENS
Info: LANGEVIN PISTON PRESSURE CONTROL ACTIVE
Info:        TARGET PRESSURE IS 1.01325 BAR
Info:     OSCILLATION PERIOD IS 50 FS
Info:             DECAY TIME IS 25 FS
Info:     PISTON TEMPERATURE IS 300 K
Info:       PRESSURE CONTROL IS GROUP-BASED
Info:    INITIAL STRAIN RATE IS 0 0 0
Info:       CELL FLUCTUATION IS ISOTROPIC
Info: PARTICLE MESH EWALD (PME) ACTIVE
Info: PME TOLERANCE               1e-06
Info: PME EWALD COEFFICIENT       0.348832
Info: PME INTERPOLATION ORDER     4
Info: PME GRID DIMENSIONS         40 36 36
Info: PME MAXIMUM GRID SPACING    1
Info: FULL ELECTROSTATIC EVALUATION FREQUENCY      2
Info: USING VERLET I (r-RESPA) MTS SCHEME.
Info: C1 SPLITTING OF LONG RANGE ELECTROSTATICS
Info: PLACING ATOMS IN PATCHES BY HYDROGEN GROUPS
Info: RIGID BONDS TO HYDROGEN : ALL
Info:         ERROR TOLERANCE : 1e-08
Info:          MAX ITERATIONS : 100
Info: RIGID WATER USING SETTLE ALGORITHM
Info: RANDOM NUMBER SEED     1744762902
Info: USE HYDROGEN BONDS?    NO
Info: Using AMBER format force field!
Info: AMBER PARM FILE        mobley_9534740.prmtop
Info: COORDINATE PDB         mobley_9534740.pdb
Info: Exclusions will be read from PARM file!
Info: SCNB (VDW SCALING)     2
Info: USING ARITHMETIC MEAN TO COMBINE L-J SIGMA PARAMETERS
Info: BINARY COORDINATES     mobley_9534740_min.coor
Info: SUMMARY OF PARAMETERS:
Info: 8 BONDS
Info: 13 ANGLES
Info:   13 HARMONIC
Info:   0 COSINE-BASED
Info: 13 DIHEDRAL
Info: 0 IMPROPER
Info: 0 CROSSTERM
Info: 0 VDW
Info: 28 VDW_PAIRS
Info: 0 NBTHOLE_PAIRS
Info: STRUCTURE SUMMARY:
Info: 2976 ATOMS
Info: 2976 BONDS
Info: 42 ANGLES
Info: 100 DIHEDRALS
Info: 0 IMPROPERS
Info: 0 CROSSTERMS
Info: 3081 EXCLUSIONS
Info: 24 FIXED ATOMS
Info: 2964 RIGID BONDS
Info: 12 RIGID BONDS BETWEEN FIXED ATOMS
Info: 5904 DEGREES OF FREEDOM
Info: 996 HYDROGEN GROUPS
Info: 3 ATOMS IN LARGEST HYDROGEN GROUP
Info: 996 MIGRATION GROUPS
Info: 3 ATOMS IN LARGEST MIGRATION GROUP
Info: 12 HYDROGEN GROUPS WITH ALL ATOMS FIXED
Info: TOTAL MASS = 17907.9 amu
Info: TOTAL CHARGE = 4.84288e-08 e
Info: MASS DENSITY = 0.655118 g/cm^3
Info: ATOM DENSITY = 0.0655615 atoms/A^3
Info: ADDED 0 IMPLICIT EXCLUSIONS
Info: NONBONDED TABLE R-SQUARED SPACING: 0.0625
Info: NONBONDED TABLE SIZE: 705 POINTS
Info: REMOVING COM VELOCITY 0.115777 -0.109275 0.0732345
TCL: Running for 100000 steps
ETITLE: TS BOND ANGLE DIHED IMPRP ELECT VDW BOUNDARY MISC KINETIC TOTAL TEMP POTENTIAL TOTAL3 TEMPAVG PRESSURE GPRESSURE VOLUME PRESSAVG GPRESSAVG
ENERGY: 0 0.0000 0.0000 0.0000 0.0000 -13965.9105 2409.4400 0.0000 0.0000 1715.5293 -9840.9411 292.4436 -11556.4704 -9840.6094 292.4436 407.2527 441.2241 45392.5141 407.2527 441.2241
ENERGY: 100000 0.0000 0.0000 0.0000 0.0000 -14412.1447 2442.9991 0.0000 0.0000 178.4003 -11790.7453 30.4116 -11969.1456 -11790.3458 30.8815 -408.5109 -329.4706 30119.9885 3.9075 3.8714
TCL: Running 100000 steps at 60 kelvin.
TCL: Setting parameter langevinTemp to 60
TCL: Running for 100000 steps
ETITLE: TS BOND ANGLE DIHED IMPRP ELECT VDW BOUNDARY MISC KINETIC TOTAL TEMP POTENTIAL TOTAL3 TEMPAVG PRESSURE GPRESSURE VOLUME PRESSAVG GPRESSAVG
ENERGY: 100000 0.0000 0.0000 0.0000 0.0000 -14412.1447 2442.9991 0.0000 0.0000 178.3154 -11790.8302 30.3971 -11969.1456 -11790.4314 30.3971 -386.8087 -329.7667 30119.9885 -386.8087 -329.7667
ENERGY: 200000 0.0000 0.0000 0.0000 0.0000 -14377.5138 2462.2665 0.0000 0.0000 350.4714 -11564.7760 59.7443 -11915.2473 -11564.1462 59.8878 257.1366 298.9533 29318.2101 4.0130 4.0593
TCL: Running 100000 steps at 90 kelvin.
TCL: Setting parameter langevinTemp to 90
TCL: Running for 100000 steps
ETITLE: TS BOND ANGLE DIHED IMPRP ELECT VDW BOUNDARY MISC KINETIC TOTAL TEMP POTENTIAL TOTAL3 TEMPAVG PRESSURE GPRESSURE VOLUME PRESSAVG GPRESSAVG
ENERGY: 200000 0.0000 0.0000 0.0000 0.0000 -14377.5138 2462.2665 0.0000 0.0000 350.2964 -11564.9509 59.7145 -11915.2473 -11564.3432 59.7145 249.4630 298.9591 29318.2101 249.4630 298.9591
ENERGY: 300000 0.0000 0.0000 0.0000 0.0000 -14271.8716 2428.6309 0.0000 0.0000 550.6715 -11292.5692 93.8721 -11843.2407 -11291.2059 89.9059 299.1073 380.0523 29022.5032 3.8185 3.8655
TCL: Running 100000 steps at 120 kelvin.
TCL: Setting parameter langevinTemp to 120
TCL: Running for 100000 steps
ETITLE: TS BOND ANGLE DIHED IMPRP ELECT VDW BOUNDARY MISC KINETIC TOTAL TEMP POTENTIAL TOTAL3 TEMPAVG PRESSURE GPRESSURE VOLUME PRESSAVG GPRESSAVG
ENERGY: 300000 0.0000 0.0000 0.0000 0.0000 -14271.8716 2428.6309 0.0000 0.0000 550.4073 -11292.8334 93.8271 -11843.2407 -11291.5473 93.8271 321.1487 380.5154 29022.5032 321.1487 380.5154
ENERGY: 400000 0.0000 0.0000 0.0000 0.0000 -14243.1513 2483.8996 0.0000 0.0000 725.9191 -11033.3325 123.7463 -11759.2517 -11031.0653 119.9932 1186.5537 1231.8427 28895.0825 3.4915 3.4681
TCL: Running 100000 steps at 150 kelvin.
TCL: Setting parameter langevinTemp to 150
TCL: Running for 100000 steps
ETITLE: TS BOND ANGLE DIHED IMPRP ELECT VDW BOUNDARY MISC KINETIC TOTAL TEMP POTENTIAL TOTAL3 TEMPAVG PRESSURE GPRESSURE VOLUME PRESSAVG GPRESSAVG
ENERGY: 400000 0.0000 0.0000 0.0000 0.0000 -14243.1513 2483.8996 0.0000 0.0000 725.5678 -11033.6839 123.6864 -11759.2517 -11032.4957 123.6864 1185.0956 1232.1152 28895.0825 1185.0956 1232.1152
ENERGY: 500000 0.0000 0.0000 0.0000 0.0000 -13731.6135 2159.6521 0.0000 0.0000 881.8068 -10690.1546 150.3203 -11571.9614 -10688.4317 150.0544 -921.4034 -896.9077 29228.1173 4.0608 4.1044
TCL: Running 100000 steps at 180 kelvin.
TCL: Setting parameter langevinTemp to 180
TCL: Running for 100000 steps
ETITLE: TS BOND ANGLE DIHED IMPRP ELECT VDW BOUNDARY MISC KINETIC TOTAL TEMP POTENTIAL TOTAL3 TEMPAVG PRESSURE GPRESSURE VOLUME PRESSAVG GPRESSAVG
ENERGY: 500000 0.0000 0.0000 0.0000 0.0000 -13731.6135 2159.6521 0.0000 0.0000 881.3713 -10690.5901 150.2460 -11571.9614 -10688.8180 150.2460 -956.3595 -897.2045 29228.1173 -956.3595 -897.2045
ENERGY: 600000 0.0000 0.0000 0.0000 0.0000 -13569.0237 2313.5298 0.0000 0.0000 1037.4537 -10218.0403 176.8531 -11255.4940 -10216.9695 179.8706 1545.9093 1560.2895 28883.7943 3.6109 3.6014
TCL: Running 100000 steps at 210 kelvin.
TCL: Setting parameter langevinTemp to 210
TCL: Running for 100000 steps
ETITLE: TS BOND ANGLE DIHED IMPRP ELECT VDW BOUNDARY MISC KINETIC TOTAL TEMP POTENTIAL TOTAL3 TEMPAVG PRESSURE GPRESSURE VOLUME PRESSAVG GPRESSAVG
ENERGY: 600000 0.0000 0.0000 0.0000 0.0000 -13569.0237 2313.5298 0.0000 0.0000 1036.9435 -10218.5505 176.7662 -11255.4940 -10217.5241 176.7662 1512.1545 1560.2418 28883.7943 1512.1545 1560.2418
ENERGY: 700000 0.0000 0.0000 0.0000 0.0000 -12633.0160 1890.1786 0.0000 0.0000 1232.3745 -9510.4629 210.0810 -10742.8375 -9508.1456 210.2740 -35.2978 69.7577 29135.8431 3.4278 3.4228
TCL: Running 100000 steps at 240 kelvin.
TCL: Setting parameter langevinTemp to 240
TCL: Running for 100000 steps
ETITLE: TS BOND ANGLE DIHED IMPRP ELECT VDW BOUNDARY MISC KINETIC TOTAL TEMP POTENTIAL TOTAL3 TEMPAVG PRESSURE GPRESSURE VOLUME PRESSAVG GPRESSAVG
ENERGY: 700000 0.0000 0.0000 0.0000 0.0000 -12633.0160 1890.1786 0.0000 0.0000 1231.7364 -9511.1011 209.9722 -10742.8375 -9508.7301 209.9722 -7.8825 69.4834 29135.8431 -7.8825 69.4834
ENERGY: 800000 0.0000 0.0000 0.0000 0.0000 -12169.8100 1744.2324 0.0000 0.0000 1406.3918 -9019.1857 239.7454 -10425.5776 -9015.8399 239.4998 256.9987 279.5269 28904.2551 4.2260 4.1201
TCL: Running 100000 steps at 270 kelvin.
TCL: Setting parameter langevinTemp to 270
TCL: Running for 100000 steps
ETITLE: TS BOND ANGLE DIHED IMPRP ELECT VDW BOUNDARY MISC KINETIC TOTAL TEMP POTENTIAL TOTAL3 TEMPAVG PRESSURE GPRESSURE VOLUME PRESSAVG GPRESSAVG
ENERGY: 800000 0.0000 0.0000 0.0000 0.0000 -12169.8100 1744.2324 0.0000 0.0000 1405.6978 -9019.8798 239.6271 -10425.5776 -9017.0947 239.6271 202.5276 280.1160 28904.2551 202.5276 280.1160
ENERGY: 900000 0.0000 0.0000 0.0000 0.0000 -11586.5015 1604.1097 0.0000 0.0000 1587.7890 -8394.6028 270.6679 -9982.3918 -8390.6183 270.8642 158.5253 224.1427 29792.5336 3.8023 3.6674
TCL: Running 1000000 steps at 300 kelvin.
TCL: Setting parameter langevinTemp to 300
TCL: Running for 1000000 steps
ETITLE: TS BOND ANGLE DIHED IMPRP ELECT VDW BOUNDARY MISC KINETIC TOTAL TEMP POTENTIAL TOTAL3 TEMPAVG PRESSURE GPRESSURE VOLUME PRESSAVG GPRESSAVG
ENERGY: 900000 0.0000 0.0000 0.0000 0.0000 -11586.5015 1604.1097 0.0000 0.0000 1586.9854 -8395.4063 270.5310 -9982.3918 -8393.6652 270.5310 141.7045 222.5624 29792.5336 141.7045 222.5624
ENERGY: 1100000 0.0000 0.0000 0.0000 0.0000 -10909.3293 1373.7302 0.0000 0.0000 1766.9954 -7768.6036 301.2170 -9535.5991 -7765.2519 299.8736 -760.7242 -700.9348 31255.2872 3.1433 2.9868
ENERGY: 1300000 0.0000 0.0000 0.0000 0.0000 -10934.8817 1449.1375 0.0000 0.0000 1700.7602 -7784.9841 289.9260 -9485.7442 -7782.3571 300.2246 -57.0953 113.2764 30727.5437 2.1440 2.1762
ENERGY: 1500000 0.0000 0.0000 0.0000 0.0000 -10995.5777 1496.9152 0.0000 0.0000 1754.7773 -7743.8852 299.1342 -9498.6625 -7742.5274 300.3777 619.1309 682.6763 30305.8477 3.5793 3.5739
ENERGY: 1700000 0.0000 0.0000 0.0000 0.0000 -10905.9729 1380.5021 0.0000 0.0000 1767.5676 -7757.9033 301.3145 -9525.4708 -7754.4396 300.5916 -584.5468 -476.3278 30712.0003 2.2353 2.2026
ENERGY: 1900000 0.0000 0.0000 0.0000 0.0000 -10903.3752 1377.5868 0.0000 0.0000 1754.2376 -7771.5508 299.0422 -9525.7884 -7766.4331 300.3360 -657.4498 -566.5678 30832.0603 2.5730 2.6484
TCL: Exiting due to exit command.
